                                  MODFLOW-2005     
      U.S. GEOLOGICAL SURVEY MODULAR FINITE-DIFFERENCE GROUND-WATER FLOW MODEL
                            VERSION 1.12.00 x/x/2015

 LIST FILE: rewet1D.lst
                         UNIT    7

 OPENING rewet1D.bas
 FILE TYPE:BAS6   UNIT    1   STATUS:OLD    
 FORMAT:FORMATTED              ACCESS:SEQUENTIAL          

 OPENING rewet1D.dis
 FILE TYPE:DIS   UNIT   29   STATUS:OLD    
 FORMAT:FORMATTED              ACCESS:SEQUENTIAL          

 OPENING rewet1D.lpf
 FILE TYPE:LPF   UNIT   11   STATUS:OLD    
 FORMAT:FORMATTED              ACCESS:SEQUENTIAL          

 OPENING rewet1D.oc
 FILE TYPE:OC   UNIT   22   STATUS:OLD    
 FORMAT:FORMATTED              ACCESS:SEQUENTIAL          

 OPENING rewet1D.pcg
 FILE TYPE:PCG   UNIT   19   STATUS:OLD    
 FORMAT:FORMATTED              ACCESS:SEQUENTIAL          

 OPENING rewet1D.swr
 FILE TYPE:SWR   UNIT   61   STATUS:OLD    
 FORMAT:FORMATTED              ACCESS:SEQUENTIAL          

 OPENING rewet1D.drn
 FILE TYPE:DRN   UNIT   62   STATUS:OLD    
 FORMAT:FORMATTED              ACCESS:SEQUENTIAL          

 OPENING rewet1D_inflow.ref
 FILE TYPE:DATA   UNIT  201   STATUS:UNKNOWN
 FORMAT:FORMATTED              ACCESS:SEQUENTIAL          

 OPENING rewet1D_dt.ref
 FILE TYPE:DATA   UNIT  202   STATUS:UNKNOWN
 FORMAT:FORMATTED              ACCESS:SEQUENTIAL          

 OPENING rewet1D.flow
 FILE TYPE:DATA(BINARY)   UNIT  101   STATUS:UNKNOWN
 FORMAT:UNFORMATTED            ACCESS:STREAM              

 OPENING rewet1D.stg
 FILE TYPE:DATA(BINARY)   UNIT  102   STATUS:UNKNOWN
 FORMAT:UNFORMATTED            ACCESS:STREAM              

 OPENING rewet1D.qaq
 FILE TYPE:DATA(BINARY)   UNIT  103   STATUS:UNKNOWN
 FORMAT:UNFORMATTED            ACCESS:STREAM              

 OPENING rewet1D.hds
 FILE TYPE:DATA(BINARY)   UNIT  111   STATUS:UNKNOWN
 FORMAT:UNFORMATTED            ACCESS:STREAM              

 BAS -- BASIC PACKAGE, VERSION 7, 5/2/2005 INPUT READ FROM UNIT    1

 MODFLOW was compiled using mixed precision
 Precision of REAL variables:           6
 Precision of DOUBLE PRECISION variables:          15

 DISCRETIZATION INPUT DATA READ FROM UNIT   29
 # MODFLOW2005 Discretization File
    3 LAYERS         1 ROWS        21 COLUMNS
    1 STRESS PERIOD(S) IN SIMULATION
 MODEL TIME UNIT IS DAYS
 MODEL LENGTH UNIT IS METERS
  Confining bed flag for each layer:
   0   0   0

                     DELR =   500.000    

                     DELC =   500.000    

 TOP ELEVATION OF LAYER 1 =   1.00000    

   MODEL LAYER BOTTOM EL. =  -2.00000     FOR LAYER   1

   MODEL LAYER BOTTOM EL. =  -3.00000     FOR LAYER   2

   MODEL LAYER BOTTOM EL. =  -4.00000     FOR LAYER   3


 STRESS PERIOD     LENGTH       TIME STEPS     MULTIPLIER FOR DELT    SS FLAG
 ----------------------------------------------------------------------------
        1         200.0000        200                    1.000         TR

 TRANSIENT SIMULATION




 # MODFLOW2005 Basic Package                                                     
 #                                                                               

           BOUNDARY ARRAY =              1 FOR LAYER   1

           BOUNDARY ARRAY =              1 FOR LAYER   2

           BOUNDARY ARRAY =              1 FOR LAYER   3

 AQUIFER HEAD WILL BE SET TO   999.00     AT ALL NO-FLOW NODES (IBOUND=0).

             INITIAL HEAD =  -3.50000     FOR LAYER   1

             INITIAL HEAD =  -3.50000     FOR LAYER   2

             INITIAL HEAD =  -3.50000     FOR LAYER   3

 OUTPUT CONTROL IS SPECIFIED ONLY AT TIME STEPS FOR WHICH OUTPUT IS DESIRED
 HEAD PRINT FORMAT CODE IS   0    DRAWDOWN PRINT FORMAT CODE IS   0
 HEADS WILL BE SAVED ON UNIT  111    DRAWDOWNS WILL BE SAVED ON UNIT    0

 LPF -- LAYER-PROPERTY FLOW PACKAGE, VERSION 7, 5/2/2005
         INPUT READ FROM UNIT   11
 # MODFLOW2000 Layer Property Flow (LPF) Package
 HEAD AT CELLS THAT CONVERT TO DRY=   998.00    
 No named parameters

   LAYER FLAGS:
 LAYER       LAYTYP        LAYAVG         CHANI        LAYVKA        LAYWET
 ---------------------------------------------------------------------------
    1             1             0     1.000E+00             0             1
    2             1             0     1.000E+00             0             1
    3             1             0     1.000E+00             0             1

   INTERPRETATION OF LAYER FLAGS:
                        INTERBLOCK     HORIZONTAL    DATA IN
         LAYER TYPE   TRANSMISSIVITY   ANISOTROPY   ARRAY VKA   WETTABILITY
 LAYER      (LAYTYP)      (LAYAVG)       (CHANI)      (LAYVKA)      (LAYWET)
 ---------------------------------------------------------------------------
    1   CONVERTIBLE      HARMONIC     1.000E+00    VERTICAL K      WETTABLE
    2   CONVERTIBLE      HARMONIC     1.000E+00    VERTICAL K      WETTABLE
    3   CONVERTIBLE      HARMONIC     1.000E+00    VERTICAL K      WETTABLE

 WETTING CAPABILITY IS ACTIVE IN   3 LAYERS
  WETTING FACTOR=   9.99999978E-03
  WETTING ITERATION INTERVAL=           3
  IHDWET=           1

    HYD. COND. ALONG ROWS =   10.0000     FOR LAYER   1

      VERTICAL HYD. COND. =   10.0000     FOR LAYER   1

         SPECIFIC STORAGE =  1.000000E-05 FOR LAYER   1

           SPECIFIC YIELD =  0.200000     FOR LAYER   1

         WETDRY PARAMETER =  0.100000     FOR LAYER   1

    HYD. COND. ALONG ROWS =   10.0000     FOR LAYER   2

      VERTICAL HYD. COND. =   10.0000     FOR LAYER   2

         SPECIFIC STORAGE =  1.000000E-05 FOR LAYER   2

           SPECIFIC YIELD =  0.200000     FOR LAYER   2

         WETDRY PARAMETER =  0.100000     FOR LAYER   2

    HYD. COND. ALONG ROWS =   10.0000     FOR LAYER   3

      VERTICAL HYD. COND. =   10.0000     FOR LAYER   3

         SPECIFIC STORAGE =  1.000000E-05 FOR LAYER   3

           SPECIFIC YIELD =  0.200000     FOR LAYER   3

         WETDRY PARAMETER =  0.100000     FOR LAYER   3

 DRN -- DRAIN PACKAGE, VERSION 7, 5/2/2005 INPUT READ FROM UNIT   62
 # MODFLOW2005 Drain Package
 No named parameters
 MAXIMUM OF     24 ACTIVE DRAINS AT ONE TIME


     0 Drain parameters

 PCG -- CONJUGATE-GRADIENT SOLUTION PACKAGE, VERSION 7, 5/2/2005
 MAXIMUM OF     50 CALLS OF SOLUTION ROUTINE
 MAXIMUM OF     25 INTERNAL ITERATIONS PER CALL TO SOLUTION ROUTINE
 MATRIX PRECONDITIONING TYPE :    3
 IHCOFADD option -- When an active cell is surrounded by dry cells, convert
 the cell to dry only if storage and head-dependent boundary flow are 0.



                                    SOLUTION BY THE CONJUGATE-GRADIENT METHOD
                                   -------------------------------------------
                    MAXIMUM NUMBER OF CALLS TO PCG ROUTINE =       50
                        MAXIMUM ITERATIONS PER CALL TO PCG =       25
                               MATRIX PRECONDITIONING TYPE =        3
        RELAXATION FACTOR (ONLY USED WITH PRECOND. TYPE 1) =    0.10000E+01
 PARAMETER OF POLYNOMIAL PRECOND. = 2 (2) OR IS CALCULATED :        2
                         HEAD CHANGE CRITERION FOR CLOSURE =    0.10000E-02
                     RESIDUAL CHANGE CRITERION FOR CLOSURE =    0.10000E+01
            PCG HEAD AND RESIDUAL CHANGE PRINTOUT INTERVAL =        5
     PRINTING FROM SOLVER IS LIMITED(1) OR SUPPRESSED (>1) =        0
                            STEADY-STATE DAMPING PARAMETER =    0.98000E+00
                               TRANSIENT DAMPING PARAMETER =    0.98000E+00

 SWR -- SURFACE-WATER ROUTING PACKAGE,
 $Id: gwf2swr7.f 1.04 2016-01-28 15:00:00Z jdhughes $            
 INPUT READ FROM UNIT   61

 ...READING SWR1 PROCESS DATASET 1A
 SWR1 OPTIONS SPECIFIED IN DATASET 1B

 ...READING SWR1 PROCESS DATASET 1B


 SUMMARY OF SWR1 OPTIONS USED IN SIMULATION
 OPTION OPTION KEYWORD                       FILE UNIT
 ------ ----------------------------------- ----------
      7 USE_TABFILES                              NONE
      8 USE_NONCONVERGENCE_CONTINUE               NONE
     10 USE_INEXACT_NEWTON                        NONE
     21 USE_EXPLICIT_NEWTON_CORRECTION            NONE
 -----------------------------------------------------

 ...READING SWR1 PROCESS DATASET 2

 ...READING SWR1 PROCESS DATASET 3

 NUMBER OF REACHES                         =   21
 SURFACE WATER ONLY SIMULATION (>0=TRUE)   =    0
 LENGTH CONVERSION FACTOR                  =   1.000000    
 TIME CONVERSION FACTOR                    =   86400.00    
 MINIMUM GRADIENT FOR FLOW                 =  0.1000000E-11
 MAXIMUM DEPTH FOR SCALING REACH OUTFLOW   =  0.1000000E-01
 MINIMUM DEPTH FOR REACH OUTFLOW           =  0.1000000E-02
 DIFFUSIVE-WAVE APPROX. SPATIAL WEIGHTING  = CENTRAL             
 DEPTH SCALING                             = SIGMOID             
 TWO-DIMENSIONAL COORD.-INVARIANT APPROACH = EXPLICIT            
 MINIMUM ROUTING TIME STEP LENGTH          =  0.1000000E-02
 MAXIMUM ROUTING TIME STEP LENGTH          =  0.1000000    
 INITIAL ROUTING TIME STEP LENGTH          =  0.1000000E-02
 OUTPUT PRINT INCREMENT                    =  0.5000000    
 ADAPTIVE TIME STEP INCREMENT (RTMULT)     =   1.100000    
 ADAPTIVE TIME STEP INCREMENT FREQUENCY    =    1
 MAXIMUM RAINFALL      PER ROUTING STEP    =   0.000000    
 MAXIMUM STAGE  CHANGE PER ROUTING STEP    =   0.000000    
 MAXIMUM INFLOW CHANGE PER ROUTING STEP    =   0.000000    

 CBC OUTPUT UNIT (ISWRCBC)                 =    0
 GROUP FLOW TERMS OUTPUT UNIT (ISWRPRGF)   = -101
 REACH STAGE OUTPUT UNIT (ISWRPSTG)        = -102
 REACH AQ-RCH FLOW OUTPUT UNIT (ISWRPQAQ)  = -103
 REACH LATERAL FLOW OUTPUT UNIT (ISWRPQM)  =    0
 STRUCTURE FLOW OUTPUT UNIT (ISWRPSTR)     =    0
 SUMMARY VELOCITY AND FROUDE INFORMATION   =    F


               --- SWR SOLVER PARAMETERS ---
 SOLVER = BICONJUGATE GRADIENT STABILIZED         
 PRECONDITIONER                            = MOD. INCOMPLETE LU  
 JACOBIAN SCALING                          = NO SCALING          
 MAXIMUM NUMBER OF OUTER ITERATIONS        =  100
 MAXIMUM NUMBER OF INNER ITERATIONS        =   50
 NON-CONVERGENCE CONT.OF SWR AND MODFLOW   =    T
 MAXIMUM STAGE    TOLERANCE (TOLS)         =  0.1000000E-05
 MAXIMUM ROOT     TOLERANCE (TOLR)         =  0.8640000E+02
 INEXACT NEWTON APPROACH (INEXCTNWT)       =    T
 MAXIMUM AQ-RCH FLOW TOLERANCE (TOLA)      =  0.1000000E-01
 STEADY-STATE DAMPENING PARAMETER (DAMPSS) =  0.1000000E+01
 TRANSIENT DAMPENING PARAMETER (DAMPTR)    =  0.1000000E+01
 PSEUDO-TRANSIENT CONTINUATION APPROACH    =    F
 SOLVER OUTPUT FREQUENCY (IPRSWR)          =  999
 CONVERGENCE PRINTING FLAG (MUTSWR)        =    3
   0 - MAXIMUM RESIDUAL EACH SWR TIMESTEP
   1 - TOTAL NUMBER OF ITERATIONS EACH SWR TIMESTEP
   2 - NO PRINTING
   3 - PRINTING IF CONVERGENCE FAILS
 BACKTRACKING ALLOWED                      =    T
 MAXIMUM BACKTRACKING ITERATIONS (IBT)     =   10
 BACKTRACKING OUTPUT FREQUENCY  (IBTPRT)   =   -1

 ...READING SWR1 PROCESS DATASET 4A

 ...READING SWR1 PROCESS DATASET 4B

 -----------------------------------------------------------
 FULL REACH CONNECTIVITY FOR EACH REACH

 -----------------------------------------------------------
 REACH  =     1
               -----------------CONNECTIONS-----------------
                            1
 -----------------------------------------------------------
 REACHES           1 TO     2
 -----------------------------------------------------------

 -----------------------------------------------------------
 REACH  =     2
               -----------------CONNECTIONS-----------------
                            1              2
 -----------------------------------------------------------
 REACHES           2 TO     1     2 TO     3
 -----------------------------------------------------------

 -----------------------------------------------------------
 REACH  =     3
               -----------------CONNECTIONS-----------------
                            1              2
 -----------------------------------------------------------
 REACHES           3 TO     2     3 TO     4
 -----------------------------------------------------------

 -----------------------------------------------------------
 REACH  =     4
               -----------------CONNECTIONS-----------------
                            1              2
 -----------------------------------------------------------
 REACHES           4 TO     3     4 TO     5
 -----------------------------------------------------------

 -----------------------------------------------------------
 REACH  =     5
               -----------------CONNECTIONS-----------------
                            1              2
 -----------------------------------------------------------
 REACHES           5 TO     4     5 TO     6
 -----------------------------------------------------------

 -----------------------------------------------------------
 REACH  =     6
               -----------------CONNECTIONS-----------------
                            1              2
 -----------------------------------------------------------
 REACHES           6 TO     5     6 TO     7
 -----------------------------------------------------------

 -----------------------------------------------------------
 REACH  =     7
               -----------------CONNECTIONS-----------------
                            1              2
 -----------------------------------------------------------
 REACHES           7 TO     6     7 TO     8
 -----------------------------------------------------------

 -----------------------------------------------------------
 REACH  =     8
               -----------------CONNECTIONS-----------------
                            1              2
 -----------------------------------------------------------
 REACHES           8 TO     7     8 TO     9
 -----------------------------------------------------------

 -----------------------------------------------------------
 REACH  =     9
               -----------------CONNECTIONS-----------------
                            1              2
 -----------------------------------------------------------
 REACHES           9 TO     8     9 TO    10
 -----------------------------------------------------------

 -----------------------------------------------------------
 REACH  =    10
               -----------------CONNECTIONS-----------------
                            1              2
 -----------------------------------------------------------
 REACHES          10 TO     9    10 TO    11
 -----------------------------------------------------------

 -----------------------------------------------------------
 REACH  =    11
               -----------------CONNECTIONS-----------------
                            1              2
 -----------------------------------------------------------
 REACHES          11 TO    10    11 TO    12
 -----------------------------------------------------------

 -----------------------------------------------------------
 REACH  =    12
               -----------------CONNECTIONS-----------------
                            1              2
 -----------------------------------------------------------
 REACHES          12 TO    11    12 TO    13
 -----------------------------------------------------------

 -----------------------------------------------------------
 REACH  =    13
               -----------------CONNECTIONS-----------------
                            1              2
 -----------------------------------------------------------
 REACHES          13 TO    12    13 TO    14
 -----------------------------------------------------------

 -----------------------------------------------------------
 REACH  =    14
               -----------------CONNECTIONS-----------------
                            1              2
 -----------------------------------------------------------
 REACHES          14 TO    13    14 TO    15
 -----------------------------------------------------------

 -----------------------------------------------------------
 REACH  =    15
               -----------------CONNECTIONS-----------------
                            1              2
 -----------------------------------------------------------
 REACHES          15 TO    14    15 TO    16
 -----------------------------------------------------------

 -----------------------------------------------------------
 REACH  =    16
               -----------------CONNECTIONS-----------------
                            1              2
 -----------------------------------------------------------
 REACHES          16 TO    15    16 TO    17
 -----------------------------------------------------------

 -----------------------------------------------------------
 REACH  =    17
               -----------------CONNECTIONS-----------------
                            1              2
 -----------------------------------------------------------
 REACHES          17 TO    16    17 TO    18
 -----------------------------------------------------------

 -----------------------------------------------------------
 REACH  =    18
               -----------------CONNECTIONS-----------------
                            1              2
 -----------------------------------------------------------
 REACHES          18 TO    17    18 TO    19
 -----------------------------------------------------------

 -----------------------------------------------------------
 REACH  =    19
               -----------------CONNECTIONS-----------------
                            1              2
 -----------------------------------------------------------
 REACHES          19 TO    18    19 TO    20
 -----------------------------------------------------------

 -----------------------------------------------------------
 REACH  =    20
               -----------------CONNECTIONS-----------------
                            1              2
 -----------------------------------------------------------
 REACHES          20 TO    19    20 TO    21
 -----------------------------------------------------------

 -----------------------------------------------------------
 REACH  =    21
               -----------------CONNECTIONS-----------------
                            1
 -----------------------------------------------------------
 REACHES          21 TO    20
 -----------------------------------------------------------


 TIME-INVARIANT SURFACE-WATER ROUTING REACH DATA
  REACH IROUTETYPE SOLUTION METHOD      IRGNUM    IRG    LAY    ROW    COL       DLEN
 --------------------------------------------------------------------------------------------------
      1          3 DIFFUSIVE-WAVE            1      1      1      1      1   500.    
      2          3 DIFFUSIVE-WAVE            2      2      1      1      2   500.    
      3          3 DIFFUSIVE-WAVE            3      3      1      1      3   500.    
      4          3 DIFFUSIVE-WAVE            4      4      1      1      4   500.    
      5          3 DIFFUSIVE-WAVE            5      5      1      1      5   500.    
      6          3 DIFFUSIVE-WAVE            6      6      1      1      6   500.    
      7          3 DIFFUSIVE-WAVE            7      7      1      1      7   500.    
      8          3 DIFFUSIVE-WAVE            8      8      1      1      8   500.    
      9          3 DIFFUSIVE-WAVE            9      9      1      1      9   500.    
     10          3 DIFFUSIVE-WAVE           10     10      1      1     10   500.    
     11          3 DIFFUSIVE-WAVE           11     11      1      1     11   500.    
     12          3 DIFFUSIVE-WAVE           12     12      1      1     12   500.    
     13          3 DIFFUSIVE-WAVE           13     13      1      1     13   500.    
     14          3 DIFFUSIVE-WAVE           14     14      1      1     14   500.    
     15          3 DIFFUSIVE-WAVE           15     15      1      1     15   500.    
     16          3 DIFFUSIVE-WAVE           16     16      1      1     16   500.    
     17          3 DIFFUSIVE-WAVE           17     17      1      1     17   500.    
     18          3 DIFFUSIVE-WAVE           18     18      1      1     18   500.    
     19          3 DIFFUSIVE-WAVE           19     19      1      1     19   500.    
     20          3 DIFFUSIVE-WAVE           20     20      1      1     20   500.    
     21          3 DIFFUSIVE-WAVE           21     21      1      1     21   500.    


 SWR REACH GROUPS: REACHES IN REACH GROUP
 ---------------------------------------------------------------------
 REACH GROUP =     1 IRGNUM =     1    REACHES     1
 REACH GROUP =     2 IRGNUM =     2    REACHES     2
 REACH GROUP =     3 IRGNUM =     3    REACHES     3
 REACH GROUP =     4 IRGNUM =     4    REACHES     4
 REACH GROUP =     5 IRGNUM =     5    REACHES     5
 REACH GROUP =     6 IRGNUM =     6    REACHES     6
 REACH GROUP =     7 IRGNUM =     7    REACHES     7
 REACH GROUP =     8 IRGNUM =     8    REACHES     8
 REACH GROUP =     9 IRGNUM =     9    REACHES     9
 REACH GROUP =    10 IRGNUM =    10    REACHES    10
 REACH GROUP =    11 IRGNUM =    11    REACHES    11
 REACH GROUP =    12 IRGNUM =    12    REACHES    12
 REACH GROUP =    13 IRGNUM =    13    REACHES    13
 REACH GROUP =    14 IRGNUM =    14    REACHES    14
 REACH GROUP =    15 IRGNUM =    15    REACHES    15
 REACH GROUP =    16 IRGNUM =    16    REACHES    16
 REACH GROUP =    17 IRGNUM =    17    REACHES    17
 REACH GROUP =    18 IRGNUM =    18    REACHES    18
 REACH GROUP =    19 IRGNUM =    19    REACHES    19
 REACH GROUP =    20 IRGNUM =    20    REACHES    20
 REACH GROUP =    21 IRGNUM =    21    REACHES    21

 ...READING SWR1 PROCESS DATASET 4C

 ...READING SWR1 PROCESS DATASET 4D


 SWR TABULAR DATA:
 TYPE                  FILE UNIT INTERPOLATION        REACHES
 ----------------------------------------------------------------------------------
 LATERAL INFLOW              201 AVERAGE                  1
 SPECIFIED TIMESTEP          202 AVERAGE             
1
                            STRESS PERIOD NO.    1, LENGTH =   200.0000    
                            -----------------------------------------------

                              NUMBER OF TIME STEPS =   200

                               MULTIPLIER FOR DELT =     1.000

                            INITIAL TIME STEP SIZE =   1.000000    

 DRAIN NO.  LAYER   ROW   COL     DRAIN EL.  CONDUCTANCE         
 ----------------------------------------------------------------
      1      1      1     21      -1.000           5000.    

      1 DRAINS

 ...READING SWR1 PROCESS DATASET 5

 ...READING SWR1 PROCESS DATASET 6


  SUMMARY OF SWR REACH BOUNDARY CONDITIONS
        IRG   INACTIVE   CONSTANT     ACTIVE
 ---------- ---------- ---------- ----------
          1          0          0          1
          2          0          0          1
          3          0          0          1
          4          0          0          1
          5          0          0          1
          6          0          0          1
          7          0          0          1
          8          0          0          1
          9          0          0          1
         10          0          0          1
         11          0          0          1
         12          0          0          1
         13          0          0          1
         14          0          0          1
         15          0          0          1
         16          0          0          1
         17          0          0          1
         18          0          0          1
         19          0          0          1
         20          0          0          1
         21          0          0          1


                         CONSTANT STAGE/INACTIVE REACH GROUPS
 ------------------------------------------------------------------------------------------
 ALL REACHES ACTIVE


 SURFACE-WATER ROUTING BOUNDARY DATA 
      REACH    ISWRBND BND TYPE       
 ------------------------------------
          1          1 ACTIVE         
          2          1 ACTIVE         
          3          1 ACTIVE         
          4          1 ACTIVE         
          5          1 ACTIVE         
          6          1 ACTIVE         
          7          1 ACTIVE         
          8          1 ACTIVE         
          9          1 ACTIVE         
         10          1 ACTIVE         
         11          1 ACTIVE         
         12          1 ACTIVE         
         13          1 ACTIVE         
         14          1 ACTIVE         
         15          1 ACTIVE         
         16          1 ACTIVE         
         17          1 ACTIVE         
         18          1 ACTIVE         
         19          1 ACTIVE         
         20          1 ACTIVE         
         21          1 ACTIVE         

 ...READING SWR1 PROCESS DATASET 10

 ...READING SWR1 PROCESS DATASET 11


 SURFACE-WATER ROUTING GENERIC GEOMETRY DATA FOR STRESS PERIOD         1

   GEO ITEM    IGEONUM   IGEOTYPE    IGCNDOP    NGEOPTS   GMANNING     GWIDTH     GBELEV    GSSLOPE   CONDUCT.   LEAKANCE     GCNDLN    GETEXTD
 ----------------------------------------------------------------------------------------------------------------------------------------------
          1          1          1          0          1  0.500E-01   10.0       0.00                 0.500E+04                                 


 REACH RATING CURVE DATA FOR STRESS PERIOD
 ------------------------------------------------------------------------------------------

 REACH   =     1
 LAYSTR  =     1
 LAYEND  =     1
          N   ELEVATION [L]  XSECTAREA [L2]     VOLUME [L3] WET. PERIM. [L]   TOP WIDTH [L] SURF. AREA [L2]
 ---------- --------------- --------------- --------------- --------------- --------------- ---------------
          1  -0.2380000E-01    0.000000        0.000000        0.000000        0.000000        0.000000    
          2  -0.2379900E-01   0.1000000E-04   0.5000000E-02    10.00000        10.00000        5000.000    
          3   0.7858110E-01    1.023811        511.9055        10.20476        10.00000        5000.000    
          4   0.1809612        2.047612        1023.806        10.40952        10.00000        5000.000    
          5   0.2833413        3.071413        1535.707        10.61428        10.00000        5000.000    
          6   0.3857214        4.095214        2047.607        10.81904        10.00000        5000.000    
          7   0.4881015        5.119015        2559.508        11.02380        10.00000        5000.000    
          8   0.5904816        6.142816        3071.408        11.22856        10.00000        5000.000    
          9   0.6928617        7.166617        3583.308        11.43332        10.00000        5000.000    
         10   0.7952418        8.190418        4095.209        11.63808        10.00000        5000.000    
         11   0.8976219        9.214219        4607.109        11.84284        10.00000        5000.000    
         12    1.000000        10.23800        5119.000        12.04760        10.00000        5000.000    
         13    1.000001        10.23801        5119.005        12.04760        10.00000        5000.000    
         14    11.00000        110.2380        55119.00        12.04760        10.00000        5000.000    

 REACH   =     2
 LAYSTR  =     1
 LAYEND  =     1
          N   ELEVATION [L]  XSECTAREA [L2]     VOLUME [L3] WET. PERIM. [L]   TOP WIDTH [L] SURF. AREA [L2]
 ---------- --------------- --------------- --------------- --------------- --------------- ---------------
          1  -0.7140000E-01    0.000000        0.000000        0.000000        0.000000        0.000000    
          2  -0.7139900E-01   0.1000000E-04   0.5000000E-02    10.00000        10.00000        5000.000    
          3   0.3574110E-01    1.071411        535.7055        10.21428        10.00000        5000.000    
          4   0.1428812        2.142812        1071.406        10.42856        10.00000        5000.000    
          5   0.2500213        3.214213        1607.107        10.64284        10.00000        5000.000    
          6   0.3571614        4.285614        2142.807        10.85712        10.00000        5000.000    
          7   0.4643015        5.357015        2678.507        11.07140        10.00000        5000.000    
          8   0.5714416        6.428416        3214.208        11.28568        10.00000        5000.000    
          9   0.6785817        7.499817        3749.908        11.49996        10.00000        5000.000    
         10   0.7857218        8.571218        4285.609        11.71424        10.00000        5000.000    
         11   0.8928619        9.642619        4821.309        11.92852        10.00000        5000.000    
         12    1.000000        10.71400        5357.000        12.14280        10.00000        5000.000    
         13    1.000001        10.71401        5357.005        12.14280        10.00000        5000.000    
         14    11.00000        110.7140        55357.00        12.14280        10.00000        5000.000    

 REACH   =     3
 LAYSTR  =     1
 LAYEND  =     1
          N   ELEVATION [L]  XSECTAREA [L2]     VOLUME [L3] WET. PERIM. [L]   TOP WIDTH [L] SURF. AREA [L2]
 ---------- --------------- --------------- --------------- --------------- --------------- ---------------
          1  -0.1190000        0.000000        0.000000        0.000000        0.000000        0.000000    
          2  -0.1189990       0.1000000E-04   0.5000000E-02    10.00000        10.00000        5000.000    
          3  -0.7098900E-02    1.119011        559.5055        10.22380        10.00000        5000.000    
          4   0.1048012        2.238012        1119.006        10.44760        10.00000        5000.000    
          5   0.2167013        3.357013        1678.506        10.67140        10.00000        5000.000    
          6   0.3286014        4.476014        2238.007        10.89520        10.00000        5000.000    