# Well file for MODFLOW, generated by Flopy.
         2         0
         2         0 # stress period 0
         1        31        36   0.0000000E+00
         2        31        36   0.0000000E+00
         2         0 # stress period 1
         1        31        36  -2.5000000E+02
         2        31        36   0.0000000E+00
