# Name file for MODFLOW-2005, generated by Flopy.
#xul:0, yul:1, rotation:0, proj4_str:EPSG:4326 ,start_datetime:1-1-1970
LIST           2 swicz.list
DIS           11 swicz.dis 
BAS6          13 swicz.bas 
LPF           15 swicz.lpf 
WEL           20 swicz.wel 
GHB           23 swicz.ghb 
RCH           19 swicz.rch 
SWI2          29 swicz.swi2 
DATA(BINARY)  55 swicz.zta REPLACE
DATA         1051 swicz.zobs REPLACE
OC            14 swicz.oc 
DATA(BINARY)  51 swicz.hds REPLACE
DATA(BINARY)  52 swicz.ddn REPLACE
DATA(BINARY)  53 swicz.cbc REPLACE
PCG           27 swicz.pcg 
