# Salt Water Intrusion (SWI2) package file for MODFLOW-2005, generated by Flopy.
# Dataset 1
         1         1         2        55        53      1051 FIXEDZETA
# Dataset 2a
         1         0         3
# Dataset 3a
         0.005         0.005
# Dataset 4
INTERNAL               1   (2E15.6) -1 #nu                            
   0.000000E+00   2.500000E-02
# Dataset 5
INTERNAL               1  (61E15.6) -1 #zeta_1 layer 1                
   0.000000E+00  -1.000000E+01  -1.000000E+01  -1.000000E+01  -1.000000E+01  -1.000000E+01  -1.000000E+01  -1.000000E+01  -1.000000E+01  -1.000000E+01  -1.000000E+01  -1.000000E+01  -1.000000E+01  -1.000000E+01  -1.000000E+01  -1.000000E+01  -1.000000E+01  -1.000000E+01  -1.000000E+01  -1.000000E+01  -1.000000E+01  -1.000000E+01  -1.000000E+01  -1.000000E+01  -1.000000E+01  -1.000000E+01  -1.000000E+01  -1.000000E+01  -1.000000E+01  -1.000000E+01  -1.000000E+01  -1.000000E+01  -1.000000E+01  -1.000000E+01  -1.000000E+01  -1.000000E+01  -1.000000E+01  -1.000000E+01  -1.000000E+01  -1.000000E+01  -1.000000E+01  -1.000000E+01  -1.000000E+01  -1.000000E+01  -1.000000E+01  -1.000000E+01  -1.000000E+01  -1.000000E+01  -1.000000E+01  -1.000000E+01  -1.000000E+01  -1.000000E+01  -1.000000E+01  -1.000000E+01  -1.000000E+01  -1.000000E+01  -1.000000E+01  -1.000000E+01  -1.000000E+01  -1.000000E+01   0.000000E+00
  -1.000000E+01  -1.000000E+01  -1.000000E+01  -1.000000E+01  -1.000000E+01  -1.000000E+01  -1.000000E+01  -1.000000E+01  -1.000000E+01  -1.000000E+01  -1.000000E+01  -1.000000E+01  -1.000000E+01  -1.000000E+01  -1.000000E+01  -1.000000E+01  -1.000000E+01  -1.000000E+01  -1.000000E+01  -1.000000E+01  -1.000000E+01  -1.000000E+01  -1.000000E+01  -1.000000E+01  -1.000000E+01  -1.000000E+01  -1.000000E+01  -1.000000E+01  -1.000000E+01  -1.000000E+01  -1.000000E+01  -1.000000E+01  -1.000000E+01  -1.000000E+01  -1.000000E+01  -1.000000E+01  -1.000000E+01  -1.000000E+01  -1.000000E+01  -1.000000E+01  -1.000000E+01  -1.000000E+01  -1.000000E+01  -1.000000E+01  -1.000000E+01  -1.000000E+01  -1.000000E+01  -1.000000E+01  -1.000000E+01  -1.000000E+01  -1.000000E+01  -1.000000E+01  -1.000000E+01  -1.000000E+01  -1.000000E+01  -1.000000E+01  -1.000000E+01  -1.000000E+01  -1.000000E+01  -1.000000E+01  -1.000000E+01
  -1.000000E+01  -1.000000E+01  -1.000000E+01  -1.000000E+01  -1.000000E+01  -1.000000E+01  -1.000000E+01  -1.000000E+01  -1.000000E+01  -1.000000E+01  -1.000000E+01  -1.000000E+01  -1.000000E+01  -1.000000E+01  -1.000000E+01  -1.000000E+01  -1.000000E+01  -1.000000E+01  -1.000000E+01  -1.000000E+01  -1.000000E+01  -1.000000E+01  -1.000000E+01  -1.000000E+01  -1.000000E+01  -1.000000E+01  -1.000000E+01  -1.000000E+01  -1.000000E+01  -1.000000E+01  -1.000000E+01  -1.000000E+01  -1.000000E+01  -1.000000E+01  -1.000000E+01  -1.000000E+01  -1.000000E+01  -1.000000E+01  -1.000000E+01  -1.000000E+01  -1.000000E+01  -1.000000E+01  -1.000000E+01  -1.000000E+01  -1.000000E+01  -1.000000E+01  -1.000000E+01  -1.000000E+01  -1.000000E+01  -1.000000E+01  -1.000000E+01  -1.000000E+01  -1.000000E+01  -1.000000E+01  -1.000000E+01  -1.000000E+01  -1.000000E+01  -1.000000E+01  -1.000000E+01  -1.000000E+01  -1.000000E+01
  -1.000000E+01  -1.000000E+01  -1.000000E+01  -1.000000E+01  -1.000000E+01  -1.000000E+01  -1.000000E+01  -1.000000E+01  -1.000000E+01  -1.000000E+01  -1.000000E+01  -1.000000E+01  -1.000000E+01  -1.000000E+01  -1.000000E+01  -1.000000E+01  -1.000000E+01  -1.000000E+01  -1.000000E+01  -1.000000E+01  -1.000000E+01  -1.000000E+01  -1.000000E+01  -1.000000E+01  -1.000000E+01  -1.000000E+01  -1.000000E+01  -1.000000E+01  -1.000000E+01  -1.000000E+01  -1.000000E+01  -1.000000E+01  -1.000000E+01  -1.000000E+01  -1.000000E+01  -1.000000E+01  -1.000000E+01  -1.000000E+01  -1.000000E+01  -1.000000E+01  -1.000000E+01  -1.000000E+01  -1.000000E+01  -1.000000E+01  -1.000000E+01  -1.000000E+01  -1.000000E+01  -1.000000E+01  -1.000000E+01  -1.000000E+01  -1.000000E+01  -1.000000E+01  -1.000000E+01  -1.000000E+01  -1.000000E+01  -1.000000E+01  -1.000000E+01  -1.000000E+01  -1.000000E+01  -1.000000E+01  -1.000000E+01
  -1.000000E+01  -1.000000E+01  -1.000000E+01  -1.000000E+01  -1.000000E+01  -1.000000E+01  -1.000000E+01  -1.000000E+01  -1.000000E+01  -1.000000E+01  -1.000000E+01  -1.000000E+01  -1.000000E+01  -1.000000E+01  -1.000000E+01  -1.000000E+01  -1.000000E+01  -1.000000E+01  -1.000000E+01  -1.000000E+01  -1.000000E+01  -1.000000E+01  -1.000000E+01  -1.000000E+01  -1.000000E+01  -1.000000E+01  -1.000000E+01  -1.000000E+01  -1.000000E+01  -1.000000E+01  -1.000000E+01  -1.000000E+01  -1.000000E+01  -1.000000E+01  -1.000000E+01  -1.000000E+01  -1.000000E+01  -1.000000E+01  -1.000000E+01  -1.000000E+01  -1.000000E+01  -1.000000E+01  -1.000000E+01  -1.000000E+01  -1.000000E+01  -1.000000E+01  -1.000000E+01  -1.000000E+01  -1.000000E+01  -1.000000E+01  -1.000000E+01  -1.000000E+01  -1.000000E+01  -1.000000E+01  -1.000000E+01  -1.000000E+01  -1.000000E+01  -1.000000E+01  -1.000000E+01  -1.000000E+01  -1.000000E+01
  -1.000000E+01  -1.000000E+01  -1.000000E+01  -1.000000E+01  -1.000000E+01  -1.000000E+01  -1.000000E+01  -1.000000E+01  -1.000000E+01  -1.000000E+01  -1.000000E+01  -1.000000E+01  -1.000000E+01  -1.000000E+01  -1.000000E+01  -1.000000E+01  -1.000000E+01  -1.000000E+01  -1.000000E+01  -1.000000E+01  -1.000000E+01  -1.000000E+01  -1.000000E+01  -1.000000E+01  -1.000000E+01  -1.000000E+01  -1.000000E+01  -1.000000E+01  -1.000000E+01  -1.000000E+01  -1.000000E+01  -1.000000E+01  -1.000000E+01  -1.000000E+01  -1.000000E+01  -1.000000E+01  -1.000000E+01  -1.000000E+01  -1.000000E+01  -1.000000E+01  -1.000000E+01  -1.000000E+01  -1.000000E+01  -1.000000E+01  -1.000000E+01  -1.000000E+01  -1.000000E+01  -1.000000E+01  -1.000000E+01  -1.000000E+01  -1.000000E+01  -1.000000E+01  -1.000000E+01  -1.000000E+01  -1.000000E+01  -1.000000E+01  -1.000000E+01  -1.000000E+01  -1.000000E+01  -1.000000E+01  -1.000000E+01
  -1.000000E+01  -1.000000E+01  -1.000000E+01  -1.000000E+01  -1.000000E+01  -1.000000E+01  -1.000000E+01  -1.000000E+01  -1.000000E+01  -1.000000E+01  -1.000000E+01  -1.000000E+01  -1.000000E+01  -1.000000E+01  -1.000000E+01  -1.000000E+01  -1.000000E+01  -1.000000E+01  -1.000000E+01  -1.000000E+01  -1.000000E+01  -1.000000E+01  -1.000000E+01  -1.000361E+01  -1.000912E+01  -1.000225E+01  -1.000916E+01  -1.000111E+01  -1.000503E+01  -1.001250E+01  -1.000396E+01  -1.000000E+01  -1.000632E+01  -1.000098E+01  -1.000757E+01  -1.000207E+01  -1.000771E+01  -1.000039E+01  -1.000000E+01  -1.000000E+01  -1.000000E+01  -1.000000E+01  -1.000000E+01  -1.000000E+01  -1.000000E+01  -1.000000E+01  -1.000000E+01  -1.000000E+01  -1.000000E+01  -1.000000E+01  -1.000000E+01  -1.000000E+01  -1.000000E+01  -1.000000E+01  -1.000000E+01  -1.000000E+01  -1.000000E+01  -1.000000E+01  -1.000000E+01  -1.000000E+01  -1.000000E+01
  -1.000000E+01  -1.000000E+01  -1.000000E+01  -1.000000E+01  -1.000000E+01  -1.000000E+01  -1.000000E+01  -1.000000E+01  -1.000000E+01  -1.000000E+01  -1.000000E+01  -1.000560E+01  -1.002105E+01  -1.004191E+01  -1.006625E+01  -1.009256E+01  -1.011967E+01  -1.014671E+01  -1.017301E+01  -1.019806E+01  -1.022148E+01  -1.024452E+01  -1.024654E+01  -1.025691E+01  -1.026790E+01  -1.028647E+01  -1.029086E+01  -1.030629E+01  -1.030904E+01  -1.030675E+01  -1.031472E+01  -1.031743E+01  -1.030742E+01  -1.030607E+01  -1.029208E+01  -1.028637E+01  -1.026898E+01  -1.026000E+01  -1.024902E+01  -1.024481E+01  -1.022153E+01  -1.019806E+01  -1.017301E+01  -1.014670E+01  -1.011967E+01  -1.009256E+01  -1.006625E+01  -1.004191E+01  -1.002106E+01  -1.000560E+01  -1.000000E+01  -1.000000E+01  -1.000000E+01  -1.000000E+01  -1.000000E+01  -1.000000E+01  -1.000000E+01  -1.000000E+01  -1.000000E+01  -1.000000E+01  -1.000000E+01
  -1.000000E+01  -1.000000E+01  -1.000000E+01  -1.000000E+01  -1.000000E+01  -1.000000E+01  -1.000000E+01  -1.000000E+01  -1.000000E+01  -1.000480E+01  -1.017565E+01  -1.038720E+01  -1.059860E+01  -1.079577E+01  -1.097592E+01  -1.113908E+01  -1.128615E+01  -1.141827E+01  -1.153654E+01  -1.164199E+01  -1.173550E+01  -1.181793E+01  -1.189069E+01  -1.195356E+01  -1.200697E+01  -1.205173E+01  -1.208821E+01  -1.211633E+01  -1.213637E+01  -1.214819E+01  -1.215192E+01  -1.214773E+01  -1.213599E+01  -1.211607E+01  -1.208809E+01  -1.205170E+01  -1.200698E+01  -1.195358E+01  -1.189093E+01  -1.181802E+01  -1.173552E+01  -1.164200E+01  -1.153654E+01  -1.141827E+01  -1.128616E+01  -1.113908E+01  -1.097593E+01  -1.079578E+01  -1.059861E+01  -1.038721E+01  -1.017565E+01  -1.000480E+01  -1.000000E+01  -1.000000E+01  -1.000000E+01  -1.000000E+01  -1.000000E+01  -1.000000E+01  -1.000000E+01  -1.000000E+01  -1.000000E+01
  -1.000000E+01  -1.000000E+01  -1.000000E+01  -1.000000E+01  -1.000000E+01  -1.000000E+01  -1.000000E+01  -1.000000E+01  -1.000480E+01  -1.031674E+01  -1.149230E+01  -1.227133E+01  -1.287370E+01  -1.336305E+01  -1.377250E+01  -1.412152E+01  -1.442256E+01  -1.468414E+01  -1.491239E+01  -1.511185E+01  -1.528595E+01  -1.543738E+01  -1.556836E+01  -1.568082E+01  -1.577643E+01  -1.585628E+01  -1.592085E+01  -1.597071E+01  -1.600578E+01  -1.602646E+01  -1.603308E+01  -1.602597E+01  -1.600525E+01  -1.597041E+01  -1.592085E+01  -1.585642E+01  -1.577655E+01  -1.568090E+01  -1.556844E+01  -1.543742E+01  -1.528596E+01  -1.511184E+01  -1.491238E+01  -1.468414E+01  -1.442256E+01  -1.412152E+01  -1.377250E+01  -1.336305E+01  -1.287370E+01  -1.227133E+01  -1.149230E+01  -1.031675E+01  -1.000481E+01  -1.000000E+01  -1.000000E+01  -1.000000E+01  -1.000000E+01  -1.000000E+01  -1.000000E+01  -1.000000E+01  -1.000000E+01
  -1.000000E+01  -1.000000E+01  -1.000000E+01  -1.000000E+01  -1.000000E+01  -1.000000E+01  -1.000000E+01  -1.000000E+01  -1.017566E+01  -1.149231E+01  -1.473053E+01  -1.620634E+01  -1.722990E+01  -1.801990E+01  -1.866112E+01  -1.919655E+01  -1.965147E+01  -2.004221E+01  -2.038008E+01  -2.067322E+01  -2.092764E+01  -2.114791E+01  -2.133756E+01  -2.149979E+01  -2.163751E+01  -2.175252E+01  -2.184509E+01  -2.191697E+01  -2.196701E+01  -2.199644E+01  -2.200574E+01  -2.199558E+01  -2.196617E+01  -2.191654E+01  -2.184541E+01  -2.175302E+01  -2.163785E+01  -2.149997E+01  -2.133764E+01  -2.114793E+01  -2.092764E+01  -2.067322E+01  -2.038008E+01  -2.004221E+01  -1.965146E+01  -1.919655E+01  -1.866111E+01  -1.801989E+01  -1.722990E+01  -1.620633E+01  -1.473053E+01  -1.149231E+01  -1.017566E+01  -1.000000E+01  -1.000000E+01  -1.000000E+01  -1.000000E+01  -1.000000E+01  -1.000000E+01  -1.000000E+01  -1.000000E+01
  -1.000000E+01  -1.000000E+01  -1.000000E+01  -1.000000E+01  -1.000000E+01  -1.000000E+01  -1.000000E+01  -1.000562E+01  -1.038722E+01  -1.227135E+01  -1.620634E+01  -1.813920E+01  -1.948511E+01  -2.051904E+01  -2.135337E+01  -2.204633E+01  -2.263235E+01  -2.313371E+01  -2.356583E+01  -2.393981E+01  -2.426374E+01  -2.454381E+01  -2.478414E+01  -2.498911E+01  -2.516349E+01  -2.531009E+01  -2.542675E+01  -2.552046E+01  -2.558344E+01  -2.562055E+01  -2.563143E+01  -2.561790E+01  -2.558120E+01  -2.551902E+01  -2.542761E+01  -2.531124E+01  -2.516401E+01  -2.498931E+01  -2.478419E+01  -2.454380E+01  -2.426370E+01  -2.393981E+01  -2.356583E+01  -2.313371E+01  -2.263234E+01  -2.204632E+01  -2.135337E+01  -2.051904E+01  -1.948511E+01  -1.813920E+01  -1.620634E+01  -1.227135E+01  -1.038723E+01  -1.000562E+01  -1.000000E+01  -1.000000E+01  -1.000000E+01  -1.000000E+01  -1.000000E+01  -1.000000E+01  -1.000000E+01
  -1.000000E+01  -1.000000E+01  -1.000000E+01  -1.000000E+01  -1.000000E+01  -1.000000E+01  -1.000000E+01  -1.002108E+01  -1.059864E+01  -1.287372E+01  -1.722992E+01  -1.948512E+01  -2.107640E+01  -2.230445E+01  -2.329654E+01  -2.412025E+01  -2.481619E+01  -2.541086E+01  -2.592283E+01  -2.636583E+01  -2.674923E+01  -2.708207E+01  -2.736576E+01  -2.760578E+01  -2.781178E+01  -2.800231E+01  -2.812933E+01  -2.824879E+01  -2.830899E+01  -2.836519E+01  -2.836393E+01  -2.835579E+01  -2.831479E+01  -2.823194E+01  -2.813733E+01  -2.800690E+01  -2.781262E+01  -2.760582E+01  -2.736579E+01  -2.708199E+01  -2.674901E+01  -2.636582E+01  -2.592285E+01  -2.541087E+01  -2.481619E+01  -2.412025E+01  -2.329653E+01  -2.230444E+01  -2.107639E+01  -1.948512E+01  -1.722992E+01  -1.287373E+01  -1.059865E+01  -1.002108E+01  -1.000000E+01  -1.000000E+01  -1.000000E+01  -1.000000E+01  -1.000000E+01  -1.000000E+01  -1.000000E+01
  -1.000000E+01  -1.000000E+01  -1.000000E+01  -1.000000E+01  -1.000000E+01  -1.000000E+01  -1.000000E+01  -1.004196E+01  -1.079583E+01  -1.336310E+01  -1.801993E+01  -2.051907E+01  -2.230446E+01  -2.369131E+01  -2.481558E+01  -2.575075E+01  -2.654153E+01  -2.721711E+01  -2.779854E+01  -2.830345E+01  -2.873614E+01  -2.912756E+01  -2.943393E+01  -2.969220E+01  -2.991899E+01  -2.998750E+01  -3.000000E+01  -2.998750E+01  -3.000000E+01  -2.998750E+01  -3.000000E+01  -2.998750E+01  -2.998750E+01  -3.000000E+01  -2.998750E+01  -2.998750E+01  -2.992052E+01  -2.969979E+01  -2.944586E+01  -2.911479E+01  -2.874006E+01  -2.830349E+01  -2.779856E+01  -2.721713E+01  -2.654154E+01  -2.575075E+01  -2.481557E+01  -2.369130E+01  -2.230445E+01  -2.051907E+01  -1.801993E+01  -1.336310E+01  -1.079584E+01  -1.004196E+01  -1.000000E+01  -1.000000E+01  -1.000000E+01  -1.000000E+01  -1.000000E+01  -1.000000E+01  -1.000000E+01
  -1.000000E+01  -1.000000E+01  -1.000000E+01  -1.000000E+01  -1.000000E+01  -1.000000E+01  -1.000000E+01  -1.006631E+01  -1.097600E+01  -1.377258E+01  -1.866117E+01  -2.135342E+01  -2.329656E+01  -2.481558E+01  -2.605217E+01  -2.708397E+01  -2.795881E+01  -2.870631E+01  -2.933549E+01  -2.990519E+01  -3.000000E+01  -2.998750E+01  -3.000000E+01  -2.999477E+01  -3.000000E+01  -3.000000E+01  -3.000000E+01  -3.000000E+01  -3.000000E+01  -3.000000E+01  -3.000000E+01  -3.000000E+01  -3.000000E+01  -3.000000E+01  -3.000000E+01  -3.000000E+01  -3.000000E+01  -2.998750E+01  -2.998750E+01  -3.000000E+01  -3.000000E+01  -2.990206E+01  -2.934924E+01  -2.870632E+01  -2.795882E+01  -2.708396E+01  -2.605216E+01  -2.481557E+01  -2.329656E+01  -2.135342E+01  -1.866117E+01  -1.377258E+01  -1.097601E+01  -1.006632E+01  -1.000000E+01  -1.000000E+01  -1.000000E+01  -1.000000E+01  -1.000000E+01  -1.000000E+01  -1.000000E+01
  -1.000000E+01  -1.000000E+01  -1.000000E+01  -1.000000E+01  -1.000000E+01  -1.000000E+01  -1.000000E+01  -1.009264E+01  -1.113920E+01  -1.412163E+01  -1.919664E+01  -2.204640E+01  -2.412028E+01  -2.575071E+01  -2.708385E+01  -2.820195E+01  -2.916574E+01  -2.997685E+01  -3.000000E+01  -3.000000E+01  -3.000000E+01  -3.000000E+01  -3.000000E+01  -3.000000E+01  -3.000000E+01  -3.000000E+01  -3.000000E+01  -3.000000E+01  -3.000000E+01  -3.000000E+01  -3.000000E+01  -3.000000E+01  -3.000000E+01  -3.000000E+01  -3.000000E+01  -3.000000E+01  -3.000000E+01  -3.000000E+01  -3.000000E+01  -3.000000E+01  -3.000000E+01  -3.000000E+01  -2.998750E+01  -2.997583E+01  -2.916574E+01  -2.820194E+01  -2.708384E+01  -2.575070E+01  -2.412028E+01  -2.204640E+01  -1.919664E+01  -1.412164E+01  -1.113921E+01  -1.009265E+01  -1.000000E+01  -1.000000E+01  -1.000000E+01  -1.000000E+01  -1.000000E+01  -1.000000E+01  -1.000000E+01
  -1.000000E+01  -1.000000E+01  -1.000000E+01  -1.000000E+01  -1.000000E+01  -1.000000E+01  -1.000000E+01  -1.011978E+01  -1.128632E+01  -1.442273E+01  -1.965162E+01  -2.263248E+01  -2.481625E+01  -2.654137E+01  -2.795824E+01  -2.916593E+01  -2.999291E+01  -3.000000E+01  -3.000000E+01  -3.000000E+01  -3.000000E+01  -3.000000E+01  -3.000000E+01  -3.000000E+01  -3.000000E+01  -3.000000E+01  -3.000000E+01  -3.000000E+01  -3.000000E+01  -3.000000E+01  -3.000000E+01  -3.000000E+01  -3.000000E+01  -3.000000E+01  -3.000000E+01  -3.000000E+01  -3.000000E+01  -3.000000E+01  -3.000000E+01  -3.000000E+01  -3.000000E+01  -3.000000E+01  -3.000000E+01  -3.000000E+01  -2.999291E+01  -2.916592E+01  -2.795823E+01  -2.654136E+01  -2.481624E+01  -2.263247E+01  -1.965161E+01  -1.442273E+01  -1.128633E+01  -1.011979E+01  -1.000000E+01  -1.000000E+01  -1.000000E+01  -1.000000E+01  -1.000000E+01  -1.000000E+01  -1.000000E+01
  -1.000000E+01  -1.000000E+01  -1.000000E+01  -1.000000E+01  -1.000000E+01  -1.000000E+01  -1.000000E+01  -1.014686E+01  -1.141850E+01  -1.468439E+01  -2.004245E+01  -2.313396E+01  -2.541100E+01  -2.721673E+01  -2.870314E+01  -2.993441E+01  -3.000000E+01  -3.000000E+01  -3.000000E+01  -3.000000E+01  -3.000000E+01  -3.000000E+01  -3.000000E+01  -3.000000E+01  -3.000000E+01  -3.000000E+01  -3.000000E+01  -3.000000E+01  -3.000000E+01  -3.000000E+01  -3.000000E+01  -3.000000E+01  -3.000000E+01  -3.000000E+01  -3.000000E+01  -3.000000E+01  -3.000000E+01  -3.000000E+01  -3.000000E+01  -3.000000E+01  -3.000000E+01  -3.000000E+01  -3.000000E+01  -3.000000E+01  -3.000000E+01  -2.993440E+01  -2.870313E+01  -2.721673E+01  -2.541099E+01  -2.313395E+01  -2.004245E+01  -1.468440E+01  -1.141851E+01  -1.014688E+01  -1.000000E+01  -1.000000E+01  -1.000000E+01  -1.000000E+01  -1.000000E+01  -1.000000E+01  -1.000000E+01
  -1.000000E+01  -1.000000E+01  -1.000000E+01  -1.000000E+01  -1.000000E+01  -1.000000E+01  -1.000000E+01  -1.017322E+01  -1.153686E+01  -1.491275E+01  -2.038046E+01  -2.356628E+01  -2.592329E+01  -2.779894E+01  -2.936339E+01  -2.998750E+01  -3.000000E+01  -3.000000E+01  -3.000000E+01  -3.000000E+01  -3.000000E+01  -3.000000E+01  -3.000000E+01  -3.000000E+01  -3.000000E+01  -3.000000E+01  -3.000000E+01  -3.000000E+01  -3.000000E+01  -3.000000E+01  -3.000000E+01  -3.000000E+01  -3.000000E+01  -3.000000E+01  -3.000000E+01  -3.000000E+01  -3.000000E+01  -3.000000E+01  -3.000000E+01  -3.000000E+01  -3.000000E+01  -3.000000E+01  -3.000000E+01  -3.000000E+01  -3.000000E+01  -2.998750E+01  -2.936338E+01  -2.779894E+01  -2.592329E+01  -2.356627E+01  -2.038046E+01  -1.491275E+01  -1.153687E+01  -1.017323E+01  -1.000000E+01  -1.000000E+01  -1.000000E+01  -1.000000E+01  -1.000000E+01  -1.000000E+01  -1.000000E+01
  -1.000000E+01  -1.000000E+01  -1.000000E+01  -1.000000E+01  -1.000000E+01  -1.000000E+01  -1.000000E+01  -1.019834E+01  -1.164242E+01  -1.511234E+01  -2.067379E+01  -2.394056E+01  -2.636671E+01  -2.830346E+01  -2.988345E+01  -3.000000E+01  -3.000000E+01  -3.000000E+01  -3.000000E+01  -3.000000E+01  -3.000000E+01  -3.000000E+01  -3.000000E+01  -3.000000E+01  -3.000000E+01  -3.000000E+01  -3.000000E+01  -3.000000E+01  -3.000000E+01  -3.000000E+01  -3.000000E+01  -3.000000E+01  -3.000000E+01  -3.000000E+01  -3.000000E+01  -3.000000E+01  -3.000000E+01  -3.000000E+01  -3.000000E+01  -3.000000E+01  -3.000000E+01  -3.000000E+01  -3.000000E+01  -3.000000E+01  -3.000000E+01  -3.000000E+01  -2.988345E+01  -2.830345E+01  -2.636670E+01  -2.394056E+01  -2.067379E+01  -1.511235E+01  -1.164243E+01  -1.019836E+01  -1.000000E+01  -1.000000E+01  -1.000000E+01  -1.000000E+01  -1.000000E+01  -1.000000E+01  -1.000000E+01
  -1.000000E+01  -1.000000E+01  -1.000000E+01  -1.000000E+01  -1.000000E+01  -1.000000E+01  -1.000000E+01  -1.022189E+01  -1.173605E+01  -1.528660E+01  -2.092842E+01  -2.426497E+01  -2.675187E+01  -2.875080E+01  -2.999700E+01  -3.000000E+01  -3.000000E+01  -3.000000E+01  -3.000000E+01  -3.000000E+01  -3.000000E+01  -3.000000E+01  -3.000000E+01  -3.000000E+01  -3.000000E+01  -3.000000E+01  -3.000000E+01  -3.000000E+01  -3.000000E+01  -3.000000E+01  -3.000000E+01  -3.000000E+01  -3.000000E+01  -3.000000E+01  -3.000000E+01  -3.000000E+01  -3.000000E+01  -3.000000E+01  -3.000000E+01  -3.000000E+01  -3.000000E+01  -3.000000E+01  -3.000000E+01  -3.000000E+01  -3.000000E+01  -3.000000E+01  -2.999700E+01  -2.875079E+01  -2.675187E+01  -2.426496E+01  -2.092842E+01  -1.528660E+01  -1.173606E+01  -1.022191E+01  -1.000000E+01  -1.000000E+01  -1.000000E+01  -1.000000E+01  -1.000000E+01  -1.000000E+01  -1.000000E+01
  -1.000000E+01  -1.000000E+01  -1.000000E+01  -1.000000E+01  -1.000000E+01  -1.000000E+01  -1.000000E+01  -1.024529E+01  -1.181865E+01  -1.543815E+01  -2.114879E+01  -2.454511E+01  -2.708430E+01  -2.911948E+01  -3.000000E+01  -3.000000E+01  -3.000000E+01  -3.000000E+01  -3.000000E+01  -3.000000E+01  -3.000000E+01  -3.000000E+01  -3.000000E+01  -3.000000E+01  -3.000000E+01  -3.000000E+01  -3.000000E+01  -3.000000E+01  -3.000000E+01  -3.000000E+01  -3.000000E+01  -3.000000E+01  -3.000000E+01  -3.000000E+01  -3.000000E+01  -3.000000E+01  -3.000000E+01  -3.000000E+01  -3.000000E+01  -3.000000E+01  -3.000000E+01  -3.000000E+01  -3.000000E+01  -3.000000E+01  -3.000000E+01  -3.000000E+01  -3.000000E+01  -2.911947E+01  -2.708429E+01  -2.454510E+01  -2.114879E+01  -1.543816E+01  -1.181866E+01  -1.024531E+01  -1.000000E+01  -1.000000E+01  -1.000000E+01  -1.000000E+01  -1.000000E+01  -1.000000E+01  -1.000000E+01
  -1.000000E+01  -1.000000E+01  -1.000000E+01  -1.000000E+01  -1.000000E+01  -1.000000E+01  -1.001070E+01  -1.023914E+01  -1.189163E+01  -1.556922E+01  -2.133850E+01  -2.478550E+01  -2.736796E+01  -2.944734E+01  -2.998750E+01  -3.000000E+01  -3.000000E+01  -3.000000E+01  -3.000000E+01  -3.000000E+01  -3.000000E+01  -3.000000E+01  -3.000000E+01  -3.000000E+01  -3.000000E+01  -3.000000E+01  -3.000000E+01  -3.000000E+01  -3.000000E+01  -3.000000E+01  -3.000000E+01  -3.000000E+01  -3.000000E+01  -3.000000E+01  -3.000000E+01  -3.000000E+01  -3.000000E+01  -3.000000E+01  -3.000000E+01  -3.000000E+01  -3.000000E+01  -3.000000E+01  -3.000000E+01  -3.000000E+01  -3.000000E+01  -3.000000E+01  -2.998750E+01  -2.944726E+01  -2.736794E+01  -2.478550E+01  -2.133849E+01  -1.556923E+01  -1.189165E+01  -1.023916E+01  -1.001069E+01  -1.000000E+01  -1.000000E+01  -1.000000E+01  -1.000000E+01  -1.000000E+01  -1.000000E+01
  -1.000000E+01  -1.000000E+01  -1.000000E+01  -1.000000E+01  -1.000000E+01  -1.000000E+01  -1.000000E+01  -1.026171E+01  -1.195422E+01  -1.568169E+01  -2.150077E+01  -2.499073E+01  -2.760972E+01  -2.970739E+01  -2.999529E+01  -3.000000E+01  -3.000000E+01  -3.000000E+01  -3.000000E+01  -3.000000E+01  -3.000000E+01  -3.000000E+01  -3.000000E+01  -3.000000E+01  -3.000000E+01  -3.000000E+01  -3.000000E+01  -3.000000E+01  -3.000000E+01  -3.000000E+01  -3.000000E+01  -3.000000E+01  -3.000000E+01  -3.000000E+01  -3.000000E+01  -3.000000E+01  -3.000000E+01  -3.000000E+01  -3.000000E+01  -3.000000E+01  -3.000000E+01  -3.000000E+01  -3.000000E+01  -3.000000E+01  -3.000000E+01  -3.000000E+01  -2.998750E+01  -2.971545E+01  -2.760957E+01  -2.499072E+01  -2.150077E+01  -1.568170E+01  -1.195424E+01  -1.026175E+01  -1.000000E+01  -1.000000E+01  -1.000000E+01  -1.000000E+01  -1.000000E+01  -1.000000E+01  -1.000000E+01
  -1.000000E+01  -1.000000E+01  -1.000000E+01  -1.000000E+01  -1.000000E+01  -1.000000E+01  -1.000523E+01  -1.027188E+01  -1.200765E+01  -1.577728E+01  -2.163836E+01  -2.516474E+01  -2.781452E+01  -2.992293E+01  -3.000000E+01  -3.000000E+01  -3.000000E+01  -3.000000E+01  -3.000000E+01  -3.000000E+01  -3.000000E+01  -3.000000E+01  -3.000000E+01  -3.000000E+01  -3.000000E+01  -3.000000E+01  -3.000000E+01  -3.000000E+01  -3.000000E+01  -3.000000E+01  -3.000000E+01  -3.000000E+01  -3.000000E+01  -3.000000E+01  -3.000000E+01  -3.000000E+01  -3.000000E+01  -3.000000E+01  -3.000000E+01  -3.000000E+01  -3.000000E+01  -3.000000E+01  -3.000000E+01  -3.000000E+01  -3.000000E+01  -3.000000E+01  -3.000000E+01  -2.992291E+01  -2.781451E+01  -2.516473E+01  -2.163836E+01  -1.577730E+01  -1.200768E+01  -1.027092E+01  -1.000646E+01  -1.000000E+01  -1.000000E+01  -1.000000E+01  -1.000000E+01  -1.000000E+01  -1.000000E+01
  -1.000000E+01  -1.000000E+01  -1.000000E+01  -1.000000E+01  -1.000000E+01  -1.000000E+01  -1.000014E+01  -1.028893E+01  -1.205238E+01  -1.585712E+01  -2.175322E+01  -2.531094E+01  -2.799119E+01  -2.999759E+01  -3.000000E+01  -3.000000E+01  -3.000000E+01  -3.000000E+01  -3.000000E+01  -3.000000E+01  -3.000000E+01  -3.000000E+01  -3.000000E+01  -3.000000E+01  -3.000000E+01  -3.000000E+01  -3.000000E+01  -3.000000E+01  -3.000000E+01  -3.000000E+01  -3.000000E+01  -3.000000E+01  -3.000000E+01  -3.000000E+01  -3.000000E+01  -3.000000E+01  -3.000000E+01  -3.000000E+01  -3.000000E+01  -3.000000E+01  -3.000000E+01  -3.000000E+01  -3.000000E+01  -3.000000E+01  -3.000000E+01  -3.000000E+01  -3.000000E+01  -2.999759E+01  -2.799118E+01  -2.531094E+01  -2.175322E+01  -1.585714E+01  -1.205245E+01  -1.028796E+01  -1.000116E+01  -1.000000E+01  -1.000000E+01  -1.000000E+01  -1.000000E+01  -1.000000E+01  -1.000000E+01
  -1.000000E+01  -1.000000E+01  -1.000000E+01  -1.000000E+01  -1.000000E+01  -1.000000E+01  -1.000508E+01  -1.029520E+01  -1.208892E+01  -1.592171E+01  -2.184586E+01  -2.542811E+01  -2.813085E+01  -3.000000E+01  -3.000000E+01  -3.000000E+01  -3.000000E+01  -3.000000E+01  -3.000000E+01  -3.000000E+01  -3.000000E+01  -3.000000E+01  -3.000000E+01  -3.000000E+01  -3.000000E+01  -3.000000E+01  -3.000000E+01  -3.000000E+01  -3.000000E+01  -3.000000E+01  -3.000000E+01  -3.000000E+01  -3.000000E+01  -3.000000E+01  -3.000000E+01  -3.000000E+01  -3.000000E+01  -3.000000E+01  -3.000000E+01  -3.000000E+01  -3.000000E+01  -3.000000E+01  -3.000000E+01  -3.000000E+01  -3.000000E+01  -3.000000E+01  -3.000000E+01  -3.000000E+01  -2.813085E+01  -2.542811E+01  -2.184587E+01  -1.592172E+01  -1.208896E+01  -1.029429E+01  -1.000632E+01  -1.000000E+01  -1.000000E+01  -1.000000E+01  -1.000000E+01  -1.000000E+01  -1.000000E+01
  -1.000000E+01  -1.000000E+01  -1.000000E+01  -1.000000E+01  -1.000000E+01  -1.000000E+01  -1.000122E+01  -1.030685E+01  -1.211709E+01  -1.597154E+01  -2.191758E+01  -2.552117E+01  -2.823635E+01  -3.000000E+01  -3.000000E+01  -3.000000E+01  -3.000000E+01  -3.000000E+01  -3.000000E+01  -3.000000E+01  -3.000000E+01  -3.000000E+01  -3.000000E+01  -3.000000E+01  -3.000000E+01  -3.000000E+01  -3.000000E+01  -3.000000E+01  -3.000000E+01  -3.000000E+01  -3.000000E+01  -3.000000E+01  -3.000000E+01  -3.000000E+01  -3.000000E+01  -3.000000E+01  -3.000000E+01  -3.000000E+01  -3.000000E+01  -3.000000E+01  -3.000000E+01  -3.000000E+01  -3.000000E+01  -3.000000E+01  -3.000000E+01  -3.000000E+01  -3.000000E+01  -3.000000E+01  -2.823635E+01  -2.552117E+01  -2.191758E+01  -1.597155E+01  -1.211713E+01  -1.030689E+01  -1.000125E+01  -1.000000E+01  -1.000000E+01  -1.000000E+01  -1.000000E+01  -1.000000E+01  -1.000000E+01
  -1.000000E+01  -1.000000E+01  -1.000000E+01  -1.000000E+01  -1.000000E+01  -1.000000E+01  -1.000645E+01  -1.030900E+01  -1.213717E+01  -1.600672E+01  -2.196781E+01  -2.558471E+01  -2.831058E+01  -3.000000E+01  -3.000000E+01  -3.000000E+01  -3.000000E+01  -3.000000E+01  -3.000000E+01  -3.000000E+01  -3.000000E+01  -3.000000E+01  -3.000000E+01  -3.000000E+01  -3.000000E+01  -3.000000E+01  -3.000000E+01  -3.000000E+01  -3.000000E+01  -3.000000E+01  -3.000000E+01  -3.000000E+01  -3.000000E+01  -3.000000E+01  -3.000000E+01  -3.000000E+01  -3.000000E+01  -3.000000E+01  -3.000000E+01  -3.000000E+01  -3.000000E+01  -3.000000E+01  -3.000000E+01  -3.000000E+01  -3.000000E+01  -3.000000E+01  -3.000000E+01  -3.000000E+01  -2.831057E+01  -2.558471E+01  -2.196780E+01  -1.600673E+01  -1.213722E+01  -1.030853E+01  -1.000651E+01  -1.000000E+01  -1.000000E+01  -1.000000E+01  -1.000000E+01  -1.000000E+01  -1.000000E+01
  -1.000000E+01  -1.000000E+01  -1.000000E+01  -1.000000E+01  -1.000000E+01  -1.000000E+01  -1.000000E+01  -1.031829E+01  -1.214903E+01  -1.602761E+01  -2.199752E+01  -2.562209E+01  -2.835441E+01  -3.000000E+01  -3.000000E+01  -3.000000E+01  -3.000000E+01  -3.000000E+01  -3.000000E+01  -3.000000E+01  -3.000000E+01  -3.000000E+01  -3.000000E+01  -3.000000E+01  -3.000000E+01  -3.000000E+01  -3.000000E+01  -3.000000E+01  -3.000000E+01  -3.000000E+01  -3.000000E+01  -3.000000E+01  -3.000000E+01  -3.000000E+01  -3.000000E+01  -3.000000E+01  -3.000000E+01  -3.000000E+01  -3.000000E+01  -3.000000E+01  -3.000000E+01  -3.000000E+01  -3.000000E+01  -3.000000E+01  -3.000000E+01  -3.000000E+01  -3.000000E+01  -3.000000E+01  -2.835440E+01  -2.562208E+01  -2.199751E+01  -1.602761E+01  -1.214904E+01  -1.031832E+01  -1.000000E+01  -1.000000E+01  -1.000000E+01  -1.000000E+01  -1.000000E+01  -1.000000E+01  -1.000000E+01
  -1.000000E+01  -1.000000E+01  -1.000000E+01  -1.000000E+01  -1.000000E+01  -1.000000E+01  -1.000654E+01  -1.031375E+01  -1.215308E+01  -1.603452E+01  -2.200732E+01  -2.563430E+01  -2.836904E+01  -3.000000E+01  -3.000000E+01  -3.000000E+01  -3.000000E+01  -3.000000E+01  -3.000000E+01  -3.000000E+01  -3.000000E+01  -3.000000E+01  -3.000000E+01  -3.000000E+01  -3.000000E+01  -3.000000E+01  -3.000000E+01  -3.000000E+01  -3.000000E+01  -3.000000E+01  -3.000000E+01  -3.000000E+01  -3.000000E+01  -3.000000E+01  -3.000000E+01  -3.000000E+01  -3.000000E+01  -3.000000E+01  -3.000000E+01  -3.000000E+01  -3.000000E+01  -3.000000E+01  -3.000000E+01  -3.000000E+01  -3.000000E+01  -3.000000E+01  -3.000000E+01  -3.000000E+01  -2.836905E+01  -2.563428E+01  -2.200731E+01  -1.603452E+01  -1.215306E+01  -1.031558E+01  -1.000410E+01  -1.000000E+01  -1.000000E+01  -1.000000E+01  -1.000000E+01  -1.000000E+01  -1.000000E+01
  -1.000000E+01  -1.000000E+01  -1.000000E+01  -1.000000E+01  -1.000000E+01  -1.000000E+01  -1.000000E+01  -1.031829E+01  -1.214903E+01  -1.602761E+01  -2.199752E+01  -2.562209E+01  -2.835441E+01  -3.000000E+01  -3.000000E+01  -3.000000E+01  -3.000000E+01  -3.000000E+01  -3.000000E+01  -3.000000E+01  -3.000000E+01  -3.000000E+01  -3.000000E+01  -3.000000E+01  -3.000000E+01  -3.000000E+01  -3.000000E+01  -3.000000E+01  -3.000000E+01  -3.000000E+01  -3.000000E+01  -3.000000E+01  -3.000000E+01  -3.000000E+01  -3.000000E+01  -3.000000E+01  -3.000000E+01  -3.000000E+01  -3.000000E+01  -3.000000E+01  -3.000000E+01  -3.000000E+01  -3.000000E+01  -3.000000E+01  -3.000000E+01  -3.000000E+01  -3.000000E+01  -3.000000E+01  -2.835440E+01  -2.562208E+01  -2.199752E+01  -1.602760E+01  -1.214904E+01  -1.031832E+01  -1.000000E+01  -1.000000E+01  -1.000000E+01  -1.000000E+01  -1.000000E+01  -1.000000E+01  -1.000000E+01