# Discretization file for MODFLOW, generated by Flopy.
         2        61        61         1         4         2
  0  0
CONSTANT    5.000000E+01                           #delr                          
CONSTANT    5.000000E+01                           #delc                          
CONSTANT   -1.000000E+01                           #model_top                     
CONSTANT   -3.000000E+01                           #botm layer 1                  
CONSTANT   -5.000000E+01                           #botm layer 2                  
      1.000000             1  1.000000  SS 
