# LPF for MODFLOW, generated by Flopy.
        53    -1E+30         0  
         0         0
         0         0
   1.000000E+00   1.000000E+00
         0         0
         0         0
CONSTANT    1.000000E+01                           #hk layer 1                    
CONSTANT    2.000000E-01                           #vka layer 1                   
CONSTANT    1.000000E+01                           #hk layer 2                    
CONSTANT    2.000000E-01                           #vka layer 2                   
