                                  MODFLOW-NWT-SWR1 
      U.S. GEOLOGICAL SURVEY MODULAR FINITE-DIFFERENCE GROUNDWATER-FLOW MODEL
                            VERSION 1.0.7 01/15/2013
                    BASED ON MODFLOW-2005 VERSION 1.9.01 05/01/2012

 LIST FILE: Results\SWRSample04.lst
                         UNIT    7

 OPENING SWRSample04.bas
 FILE TYPE:BAS6   UNIT    1   STATUS:OLD    
 FORMAT:FORMATTED              ACCESS:SEQUENTIAL          

 OPENING SWRSample04.dis
 FILE TYPE:DIS   UNIT   29   STATUS:OLD    
 FORMAT:FORMATTED              ACCESS:SEQUENTIAL          

 OPENING SWRSample04.lpf
 FILE TYPE:LPF   UNIT   11   STATUS:OLD    
 FORMAT:FORMATTED              ACCESS:SEQUENTIAL          

 OPENING SWRSample04.oc
 FILE TYPE:OC   UNIT   22   STATUS:OLD    
 FORMAT:FORMATTED              ACCESS:SEQUENTIAL          

 OPENING SWRSample04.pcg
 FILE TYPE:PCG   UNIT   19   STATUS:OLD    
 FORMAT:FORMATTED              ACCESS:SEQUENTIAL          

 OPENING SWRSample04.swr
 FILE TYPE:SWR   UNIT   61   STATUS:OLD    
 FORMAT:FORMATTED              ACCESS:SEQUENTIAL          

 OPENING Data\Reach1Inflow.ref
 FILE TYPE:DATA   UNIT  201   STATUS:UNKNOWN
 FORMAT:FORMATTED              ACCESS:SEQUENTIAL          

 OPENING Data\Reach5Inflow.ref
 FILE TYPE:DATA   UNIT  202   STATUS:UNKNOWN
 FORMAT:FORMATTED              ACCESS:SEQUENTIAL          

 OPENING Results\SWRSample04_GroupFlow.flow
 FILE TYPE:DATA(BINARY)   UNIT  101   STATUS:UNKNOWN
 FORMAT:BINARY                 ACCESS:SEQUENTIAL          

 OPENING Results\SWRSample04_Stage.csv
 FILE TYPE:DATA   UNIT  102   STATUS:UNKNOWN
 FORMAT:FORMATTED              ACCESS:SEQUENTIAL          

 OPENING Results\SWRSample04_Velocity.vel
 FILE TYPE:DATA(BINARY)   UNIT  103   STATUS:UNKNOWN
 FORMAT:BINARY                 ACCESS:SEQUENTIAL          

 BAS -- BASIC PACKAGE, VERSION 7, 5/2/2005 INPUT READ FROM UNIT    1
 
 MODFLOW was compiled using mixed precision
 Precision of REAL variables:           6
 Precision of DOUBLE PRECISION variables:          15

 DISCRETIZATION INPUT DATA READ FROM UNIT   29
 # MODFLOW2000 Discretization File
    1 LAYERS         9 ROWS         9 COLUMNS
   25 STRESS PERIOD(S) IN SIMULATION
 MODEL TIME UNIT IS SECONDS
 MODEL LENGTH UNIT IS METERS
  Confining bed flag for each layer:
   0

                     DELR =  1000.000    

                     DELC =  1000.000    

 TOP ELEVATION OF LAYER 1 =   5.00000    

   MODEL LAYER BOTTOM EL. =  -5.00000     FOR LAYER   1


 STRESS PERIOD     LENGTH       TIME STEPS     MULTIPLIER FOR DELT    SS FLAG
 ----------------------------------------------------------------------------
        1         3600.000          2                    1.000         TR
        2         3600.000          2                    1.000         TR
        3         3600.000          2                    1.000         TR
        4         3600.000          2                    1.000         TR
        5         3600.000          2                    1.000         TR
        6         3600.000          2                    1.000         TR
        7         3600.000          2                    1.000         TR
        8         3600.000          2                    1.000         TR
        9         3600.000          2                    1.000         TR
       10         3600.000          2                    1.000         TR
       11         3600.000          2                    1.000         TR
       12         3600.000          2                    1.000         TR
       13         3600.000          2                    1.000         TR
       14         3600.000          2                    1.000         TR
       15         3600.000          2                    1.000         TR
       16         3600.000          2                    1.000         TR
       17         3600.000          2                    1.000         TR
       18         3600.000          2                    1.000         TR
       19         3600.000          2                    1.000         TR
       20         3600.000          2                    1.000         TR
       21         3600.000          2                    1.000         TR
       22         3600.000          2                    1.000         TR
       23         3600.000          2                    1.000         TR
       24         3600.000          2                    1.000         TR
       25         518400.0        288                    1.000         TR

 TRANSIENT SIMULATION



 
 # MODFLOW2005 Basic Package                                                     
 #MODFLOW Data Set Created by Groundwater Vistas                                 
 #

           BOUNDARY ARRAY =              1 FOR LAYER   1

 AQUIFER HEAD WILL BE SET TO   999.00     AT ALL NO-FLOW NODES (IBOUND=0).

             INITIAL HEAD =  1.000000     FOR LAYER   1

 OUTPUT CONTROL IS SPECIFIED ONLY AT TIME STEPS FOR WHICH OUTPUT IS DESIRED
 HEAD PRINT FORMAT CODE IS   0    DRAWDOWN PRINT FORMAT CODE IS   0
 HEADS WILL BE SAVED ON UNIT    0    DRAWDOWNS WILL BE SAVED ON UNIT    0

 LPF -- LAYER-PROPERTY FLOW PACKAGE, VERSION 7, 5/2/2005
         INPUT READ FROM UNIT   11
 # MODFLOW2000 Layer Property Flow (LPF) Package
 HEAD AT CELLS THAT CONVERT TO DRY= -1.00000E+30
 No named parameters

   LAYER FLAGS:
 LAYER       LAYTYP        LAYAVG         CHANI        LAYVKA        LAYWET
 ---------------------------------------------------------------------------
    1             1             0     1.000E+00             0             1

   INTERPRETATION OF LAYER FLAGS:
                        INTERBLOCK     HORIZONTAL    DATA IN
         LAYER TYPE   TRANSMISSIVITY   ANISOTROPY   ARRAY VKA   WETTABILITY
 LAYER      (LAYTYP)      (LAYAVG)       (CHANI)      (LAYVKA)      (LAYWET)
 ---------------------------------------------------------------------------
    1   CONVERTIBLE      HARMONIC     1.000E+00    VERTICAL K      WETTABLE

 WETTING CAPABILITY IS ACTIVE IN   1 LAYERS
  WETTING FACTOR=  0.1000000    
  WETTING ITERATION INTERVAL=           4
  IHDWET=           1

    HYD. COND. ALONG ROWS =   5.00000     FOR LAYER   1

      VERTICAL HYD. COND. =   5.00000     FOR LAYER   1

         SPECIFIC STORAGE =  1.000000     FOR LAYER   1

           SPECIFIC YIELD =  0.200000     FOR LAYER   1

         WETDRY PARAMETER =  1.000000E-01 FOR LAYER   1

 PCG -- CONJUGATE-GRADIENT SOLUTION PACKAGE, VERSION 7, 5/2/2005
 MAXIMUM OF    100 CALLS OF SOLUTION ROUTINE
 MAXIMUM OF     25 INTERNAL ITERATIONS PER CALL TO SOLUTION ROUTINE
 MATRIX PRECONDITIONING TYPE :    1
 IHCOFADD option -- When an active cell is surrounded by dry cells, convert
 the cell to dry only if storage and head-dependent boundary flow are 0.



                                    SOLUTION BY THE CONJUGATE-GRADIENT METHOD
                                   -------------------------------------------
                    MAXIMUM NUMBER OF CALLS TO PCG ROUTINE =      100
                        MAXIMUM ITERATIONS PER CALL TO PCG =       25
                               MATRIX PRECONDITIONING TYPE =        1
        RELAXATION FACTOR (ONLY USED WITH PRECOND. TYPE 1) =    0.10000E+01
 PARAMETER OF POLYNOMIAL PRECOND. = 2 (2) OR IS CALCULATED :        2
                         HEAD CHANGE CRITERION FOR CLOSURE =    0.10000E-02
                     RESIDUAL CHANGE CRITERION FOR CLOSURE =    0.10000E+01
            PCG HEAD AND RESIDUAL CHANGE PRINTOUT INTERVAL =        5
     PRINTING FROM SOLVER IS LIMITED(1) OR SUPPRESSED (>1) =        0
                            STEADY-STATE DAMPING PARAMETER =    0.10000E+01
                               TRANSIENT DAMPING PARAMETER =    0.10000E+01

 SWR -- SURFACE-WATER ROUTING PACKAGE,
 $Id: gwf2swr7.f 1.03 2013-08-30 15:00:00Z jdhughes $            
 INPUT READ FROM UNIT   61

 ...READING SWR1 PROCESS DATASET 1A
 SWR1 OPTIONS SPECIFIED IN DATASET 1B

 ...READING SWR1 PROCESS DATASET 1B
 UNRECOGNIZED SWR1 OPTION: USE_RCM_REORDERING


 SUMMARY OF SWR1 OPTIONS USED IN SIMULATION
 OPTION OPTION KEYWORD                       FILE UNIT
 ------ ----------------------------------- ----------
      7 USE_TABFILES                              NONE
      8 USE_NONCONVERGENCE_CONTINUE               NONE
 -----------------------------------------------------

 ...READING SWR1 PROCESS DATASET 2

 ...READING SWR1 PROCESS DATASET 3

 NUMBER OF REACHES                         =   18
 SURFACE WATER ONLY SIMULATION (>0=TRUE)   =    1
 LENGTH CONVERSION FACTOR                  =  1.0000000    
 TIME CONVERSION FACTOR                    =  1.0000000    
 MINIMUM GRADIENT FOR FLOW                 =   0.000000    
 MAXIMUM DEPTH FOR SCALING REACH OUTFLOW   =  0.1000000E-01
 MINIMUM DEPTH FOR REACH OUTFLOW           =  0.1000000E-02
 DIFFUSIVE-WAVE APPROX. SPATIAL WEIGHTING  = CENTRAL             
 DEPTH SCALING                             = SIGMOID             
 TWO-DIMENSIONAL COORD.-INVARIANT APPROACH = EXPLICIT            
 MINIMUM ROUTING TIME STEP LENGTH          =   1800.000    
 MAXIMUM ROUTING TIME STEP LENGTH          =   1800.000    
 INITIAL ROUTING TIME STEP LENGTH          =   1800.000    
 OUTPUT PRINT INCREMENT                    =   1800.000    
 ADAPTIVE TIME STEP INCREMENT (RTMULT)     =  1.0000000    
 ADAPTIVE TIME STEP INCREMENT FREQUENCY    =    1
 MAXIMUM RAINFALL      PER ROUTING STEP    =   0.000000    
 MAXIMUM STAGE  CHANGE PER ROUTING STEP    =   0.000000    
 MAXIMUM INFLOW CHANGE PER ROUTING STEP    =   0.000000    

 CBC OUTPUT UNIT (ISWRCBC)                 =    0
 GROUP FLOW TERMS OUTPUT UNIT (ISWRPRGF)   = -101
 REACH STAGE OUTPUT UNIT (ISWRPSTG)        =  102
 REACH AQ-RCH FLOW OUTPUT UNIT (ISWRPQAQ)  =    0
 REACH LATERAL FLOW OUTPUT UNIT (ISWRPQM)  = -103
 STRUCTURE FLOW OUTPUT UNIT (ISWRPSTR)     =    0
 SUMMARY VELOCITY AND FROUDE INFORMATION   =    T


               --- SWR SOLVER PARAMETERS ---
 SOLVER = BICONJUGATE GRADIENT STABILIZED         
 PRECONDITIONER                            = INCOMPLETE LU       
 JACOBIAN SCALING                          = NO SCALING          
 MAXIMUM NUMBER OF OUTER ITERATIONS        =  100
 MAXIMUM NUMBER OF INNER ITERATIONS        =   50
 NON-CONVERGENCE CONT.OF SWR AND MODFLOW   =    T
 MAXIMUM STAGE    TOLERANCE (TOLS)         =  0.1000000E-08
 MAXIMUM ROOT     TOLERANCE (TOLR)         =  0.2000000E-03
 INEXACT NEWTON APPROACH (INEXCTNWT)       =    F
 MAXIMUM AQ-RCH FLOW TOLERANCE (TOLA)      =  0.0000000E+00
 STEADY-STATE DAMPENING PARAMETER (DAMPSS) =  0.1000000E+01
 TRANSIENT DAMPENING PARAMETER (DAMPTR)    =  0.1000000E+01
 PSEUDO-TRANSIENT CONTINUATION APPROACH    =    F
 SOLVER OUTPUT FREQUENCY (IPRSWR)          =  999
 CONVERGENCE PRINTING FLAG (MUTSWR)        =    0
   0 - MAXIMUM RESIDUAL EACH SWR TIMESTEP
   1 - TOTAL NUMBER OF ITERATIONS EACH SWR TIMESTEP
   2 - NO PRINTING
   3 - PRINTING IF CONVERGENCE FAILS
 BACKTRACKING ALLOWED                      =    T
 MAXIMUM BACKTRACKING ITERATIONS (IBT)     =   60
 BACKTRACKING OUTPUT FREQUENCY  (IBTPRT)   =    1


 SURFACE WATER ONLY SIMULATION
 SETTING MODFLOW IBOUND TO ZERO FOR ALL CELLS

 ...READING SWR1 PROCESS DATASET 4A

 ...READING SWR1 PROCESS DATASET 4B

 -----------------------------------------------------------
 FULL REACH CONNECTIVITY FOR EACH REACH

 -----------------------------------------------------------
 REACH  =     1
               -----------------CONNECTIONS-----------------
                            1
 -----------------------------------------------------------
 REACHES           1 TO     2
 -----------------------------------------------------------

 -----------------------------------------------------------
 REACH  =     2
               -----------------CONNECTIONS-----------------
                            1              2              3
 -----------------------------------------------------------
 REACHES           2 TO     1     2 TO     3     2 TO     9
 -----------------------------------------------------------

 -----------------------------------------------------------
 REACH  =     3
               -----------------CONNECTIONS-----------------
                            1              2              3
 -----------------------------------------------------------
 REACHES           3 TO     2     3 TO     4     3 TO     9
 -----------------------------------------------------------

 -----------------------------------------------------------
 REACH  =     4
               -----------------CONNECTIONS-----------------
                            1              2
 -----------------------------------------------------------
 REACHES           4 TO     3     4 TO     5
 -----------------------------------------------------------

 -----------------------------------------------------------
 REACH  =     5
               -----------------CONNECTIONS-----------------
                            1              2
 -----------------------------------------------------------
 REACHES           5 TO     4     5 TO     6
 -----------------------------------------------------------

 -----------------------------------------------------------
 REACH  =     6
               -----------------CONNECTIONS-----------------
                            1              2
 -----------------------------------------------------------
 REACHES           6 TO     5     6 TO     7
 -----------------------------------------------------------

 -----------------------------------------------------------
 REACH  =     7
               -----------------CONNECTIONS-----------------
                            1              2
 -----------------------------------------------------------
 REACHES           7 TO     6     7 TO     8
 -----------------------------------------------------------

 -----------------------------------------------------------
 REACH  =     8
               -----------------CONNECTIONS-----------------
                            1              2              3
 -----------------------------------------------------------
 REACHES           8 TO     7     8 TO    13     8 TO    14
 -----------------------------------------------------------

 -----------------------------------------------------------
 REACH  =     9
               -----------------CONNECTIONS-----------------
                            1              2              3
 -----------------------------------------------------------
 REACHES           9 TO     2     9 TO     3     9 TO    10
 -----------------------------------------------------------

 -----------------------------------------------------------
 REACH  =    10
               -----------------CONNECTIONS-----------------
                            1              2
 -----------------------------------------------------------
 REACHES          10 TO     9    10 TO    11
 -----------------------------------------------------------

 -----------------------------------------------------------
 REACH  =    11
               -----------------CONNECTIONS-----------------
                            1              2
 -----------------------------------------------------------
 REACHES          11 TO    10    11 TO    12
 -----------------------------------------------------------

 -----------------------------------------------------------
 REACH  =    12
               -----------------CONNECTIONS-----------------
                            1              2
 -----------------------------------------------------------
 REACHES          12 TO    11    12 TO    13
 -----------------------------------------------------------

 -----------------------------------------------------------
 REACH  =    13
               -----------------CONNECTIONS-----------------
                            1              2              3
 -----------------------------------------------------------
 REACHES          13 TO     8    13 TO    12    13 TO    14
 -----------------------------------------------------------

 -----------------------------------------------------------
 REACH  =    14
               -----------------CONNECTIONS-----------------
                            1              2              3
 -----------------------------------------------------------
 REACHES          14 TO     8    14 TO    13    14 TO    15
 -----------------------------------------------------------

 -----------------------------------------------------------
 REACH  =    15
               -----------------CONNECTIONS-----------------
                            1              2
 -----------------------------------------------------------
 REACHES          15 TO    14    15 TO    16
 -----------------------------------------------------------

 -----------------------------------------------------------
 REACH  =    16
               -----------------CONNECTIONS-----------------
                            1              2
 -----------------------------------------------------------
 REACHES          16 TO    15    16 TO    17
 -----------------------------------------------------------

 -----------------------------------------------------------
 REACH  =    17
               -----------------CONNECTIONS-----------------
                            1              2
 -----------------------------------------------------------
 REACHES          17 TO    16    17 TO    18
 -----------------------------------------------------------

 -----------------------------------------------------------
 REACH  =    18
               -----------------CONNECTIONS-----------------
                            1
 -----------------------------------------------------------
 REACHES          18 TO    17
 -----------------------------------------------------------


 TIME-INVARIANT SURFACE-WATER ROUTING REACH DATA
  REACH IROUTETYPE SOLUTION METHOD      IRGNUM    IRG    LAY    ROW    COL       DLEN
 --------------------------------------------------------------------------------------------------
      1          3 DIFFUSIVE-WAVE            1      1      1      1      1  0.100E+04
      2          3 DIFFUSIVE-WAVE            2      2      1      2      1   500.    
      3          3 DIFFUSIVE-WAVE            3      3      1      2      1   500.    
      4          3 DIFFUSIVE-WAVE            4      4      1      2      2  0.100E+04
      5          3 DIFFUSIVE-WAVE            5      5      1      2      3  0.100E+04
      6          3 DIFFUSIVE-WAVE            6      6      1      2      4  0.100E+04
      7          3 DIFFUSIVE-WAVE            7      7      1      3      4  0.100E+04
      8          3 DIFFUSIVE-WAVE            8      8      1      4      4   500.    
      9          3 DIFFUSIVE-WAVE            9      9      1      2      1   500.    
     10          3 DIFFUSIVE-WAVE           10     10      1      3      1  0.112E+04
     11          3 DIFFUSIVE-WAVE           11     11      1      4      2  0.112E+04
     12          3 DIFFUSIVE-WAVE           12     12      1      4      3  0.100E+04
     13          3 DIFFUSIVE-WAVE           13     13      1      4      4   500.    
     14          3 DIFFUSIVE-WAVE           14     14      1      4      4   500.    
     15          3 DIFFUSIVE-WAVE           15     15      1      5      4  0.100E+04
     16          3 DIFFUSIVE-WAVE           16     16      1      6      4  0.100E+04
     17          3 DIFFUSIVE-WAVE           17     17      1      6      5  0.100E+04
     18          3 DIFFUSIVE-WAVE           18     18      1      6      6  0.100E+04


 SWR REACH GROUPS: REACHES IN REACH GROUP
 ---------------------------------------------------------------------
 REACH GROUP =     1 IRGNUM =     1    REACHES     1
 REACH GROUP =     2 IRGNUM =     2    REACHES     2
 REACH GROUP =     3 IRGNUM =     3    REACHES     3
 REACH GROUP =     4 IRGNUM =     4    REACHES     4
 REACH GROUP =     5 IRGNUM =     5    REACHES     5
 REACH GROUP =     6 IRGNUM =     6    REACHES     6
 REACH GROUP =     7 IRGNUM =     7    REACHES     7
 REACH GROUP =     8 IRGNUM =     8    REACHES     8
 REACH GROUP =     9 IRGNUM =     9    REACHES     9
 REACH GROUP =    10 IRGNUM =    10    REACHES    10
 REACH GROUP =    11 IRGNUM =    11    REACHES    11
 REACH GROUP =    12 IRGNUM =    12    REACHES    12
 REACH GROUP =    13 IRGNUM =    13    REACHES    13
 REACH GROUP =    14 IRGNUM =    14    REACHES    14
 REACH GROUP =    15 IRGNUM =    15    REACHES    15
 REACH GROUP =    16 IRGNUM =    16    REACHES    16
 REACH GROUP =    17 IRGNUM =    17    REACHES    17
 REACH GROUP =    18 IRGNUM =    18    REACHES    18

 ...READING SWR1 PROCESS DATASET 4C

 ...READING SWR1 PROCESS DATASET 4D


 SWR TABULAR DATA:
 TYPE                  FILE UNIT INTERPOLATION        REACHES
 ----------------------------------------------------------------------------------
 LATERAL INFLOW              201 INTERPOLATE              1
 LATERAL INFLOW              202 INTERPOLATE              5
1
                            STRESS PERIOD NO.    1, LENGTH =   3600.000    
                            -----------------------------------------------

                              NUMBER OF TIME STEPS =     2

                               MULTIPLIER FOR DELT =     1.000

                            INITIAL TIME STEP SIZE =   1800.000    

 ...READING SWR1 PROCESS DATASET 5

 ...READING SWR1 PROCESS DATASET 6


  SUMMARY OF SWR REACH BOUNDARY CONDITIONS
        IRG   INACTIVE   CONSTANT     ACTIVE
 ---------- ---------- ---------- ----------
          1          0          0          1
          2          0          0          1
          3          0          0          1
          4          0          0          1
          5          0          0          1
          6          0          0          1
          7          0          0          1
          8          0          0          1
          9          0          0          1
         10          0          0          1
         11          0          0          1
         12          0          0          1
         13          0          0          1
         14          0          0          1
         15          0          0          1
         16          0          0          1
         17          0          0          1
         18          0          0          1


                         CONSTANT STAGE/INACTIVE REACH GROUPS
 ------------------------------------------------------------------------------------------
 ALL REACHES ACTIVE


 SURFACE-WATER ROUTING BOUNDARY DATA 
      REACH    ISWRBND BND TYPE       
 ------------------------------------
          1          1 ACTIVE         
          2          1 ACTIVE         
          3          1 ACTIVE         
          4          1 ACTIVE         
          5          1 ACTIVE         
          6          1 ACTIVE         
          7          1 ACTIVE         
          8          1 ACTIVE         
          9          1 ACTIVE         
         10          1 ACTIVE         
         11          1 ACTIVE         
         12          1 ACTIVE         
         13          1 ACTIVE         
         14          1 ACTIVE         
         15          1 ACTIVE         
         16          1 ACTIVE         
         17          1 ACTIVE         
         18          1 ACTIVE         

 ...READING SWR1 PROCESS DATASET 10

 ...READING SWR1 PROCESS DATASET 11


 SURFACE-WATER ROUTING GENERIC GEOMETRY DATA FOR STRESS PERIOD         1

   GEO ITEM    IGEONUM   IGEOTYPE    IGCNDOP    NGEOPTS   GMANNING     GWIDTH     GBELEV    GSSLOPE   CONDUCT.   LEAKANCE     GCNDLN    GETEXTD
 ----------------------------------------------------------------------------------------------------------------------------------------------
          1          1          2          0          1  0.300E-01  10.00       0.00      1.000       0.00                                     
          2          2          2          0          1  0.300E-01   20.0       0.00      1.000       0.00                                     
          3          3          2          0          1  0.300E-01   15.0       0.00      1.000       0.00                                     


 REACH RATING CURVE DATA FOR STRESS PERIOD
 ------------------------------------------------------------------------------------------

 REACH   =     1
 LAYSTR  =     1
 LAYEND  =     1
          N   ELEVATION [L]  XSECTAREA [L2]     VOLUME [L3] WET. PERIM. [L]   TOP WIDTH [L] SURF. AREA [L2]
 ---------- --------------- --------------- --------------- --------------- --------------- ---------------
          1    2.000000        0.000000        0.000000        0.000000        0.000000        0.000000    
          2    2.000001       0.1000000E-04   0.1000000E-01    10.00000        10.00000        10000.00    
          3    2.300001        3.090012        3090.012        10.84853        10.60000        10600.00    
          4    2.600001        6.360013        6360.013        11.69706        11.20000        11200.00    
          5    2.900001        9.810015        9810.015        12.54559        11.80000        11800.00    
          6    3.200001        13.44002        13440.02        13.39412        12.40000        12400.00    
          7    3.500002        17.25002        17250.02        14.24264        13.00000        13000.00    
          8    3.800002        21.24002        21240.02        15.09117        13.60000        13600.00    
          9    4.100002        25.41002        25410.02        15.93970        14.20000        14200.00    
         10    4.400002        29.76003        29760.03        16.78823        14.80000        14800.00    
         11    4.700002        34.29003        34290.03        17.63676        15.40000        15400.00    
         12    5.000000        39.00000        39000.00        18.48528        16.00000        16000.00    
         13    5.000001        39.00002        39000.02        18.48528        16.00000        16000.00    
         14    15.00000        199.0000        199000.0        18.48528        16.00000        16000.00    

 REACH   =     2
 LAYSTR  =     1
 LAYEND  =     1
          N   ELEVATION [L]  XSECTAREA [L2]     VOLUME [L3] WET. PERIM. [L]   TOP WIDTH [L] SURF. AREA [L2]
 ---------- --------------- --------------- --------------- --------------- --------------- ---------------
          1    1.830000        0.000000        0.000000        0.000000        0.000000        0.000000    
          2    1.830001       0.1000000E-04   0.5000000E-02    10.00000        10.00000        5000.001    
          3    2.147001        3.270501        1635.250        10.89661        10.63400        5317.001    
          4    2.464001        6.741970        3370.985        11.79323        11.26800        5634.001    
          5    2.781001        10.41442        5207.208        12.68984        11.90200        5951.001    
          6    3.098001        14.28784        7143.921        13.58645        12.53600        6268.001    
          7    3.415001        18.36224        9181.122        14.48306        13.17000        6585.002    
          8    3.732002        22.63763        11318.81        15.37967        13.80400        6902.002    
          9    4.049002        27.11399        13556.99        16.27628        14.43800        7219.002    
         10    4.366002        31.79132        15895.66        17.17290        15.07200        7536.002    
         11    4.683002        36.66964        18334.82        18.06951        15.70600        7853.002    
         12    5.000000        41.74890        20874.45        18.96611        16.34000        8170.000    
         13    5.000001        41.74892        20874.46        18.96611        16.34000        8170.000    
         14    15.00000        205.1489        102574.4        18.96611        16.34000        8170.000    

 REACH   =     3
 LAYSTR  =     1
 LAYEND  =     1
          N   ELEVATION [L]  XSECTAREA [L2]     VOLUME [L3] WET. PERIM. [L]   TOP WIDTH [L] SURF. AREA [L2]
 ---------- --------------- --------------- --------------- --------------- --------------- ---------------
          1    1.830000        0.000000        0.000000        0.000000        0.000000        0.000000    
          2    1.830001       0.2000000E-04   0.1000000E-01    20.00000        20.00000        10000.00    
          3    2.147001        6.440512        3220.256        20.89661        20.63400        10317.00    
          4    2.464001        13.08198        6540.991        21.79323        21.26800        10634.00    
          5    2.781001        19.92443        9962.215        22.68984        21.90200        10951.00    
          6    3.098001        26.96786        13483.93        23.58645        22.53600        11268.00    
          7    3.415001        34.21226        17106.13        24.48306        23.17000        11585.00    
          8    3.732002        41.65764        20828.82        25.37967        23.80400        11902.00    
          9    4.049002        49.30400        24652.00        26.27628        24.43800        12219.00    
         10    4.366002        57.15134        28575.67        27.17290        25.07200        12536.00    
         11    4.683002        65.19966        32599.83        28.06951        25.70600        12853.00    