# PCG for MODFLOW, generated by Flopy.
100 50 1 0
1e-06 0.003 1.0 0 0 3 1.0 
