# Salt Water Intrusion (SWI2) package file for MODFLOW-2005, generated by Flopy.
# Dataset 1
         1         1         2        55        53      1051
# Dataset 2a
         1         0         3
# Dataset 3a
         0.005         0.005
# Dataset 4
INTERNAL               1  (2G15.6)  -1 #nu                            
   0.000000E+00   2.500000E-02
# Dataset 5
INTERNAL               1 (61G15.6)  -1 #zeta_1 Layer 1                
  -1.000000E+01  -1.000000E+01  -1.000000E+01  -1.000000E+01  -1.000000E+01  -1.000000E+01  -1.000000E+01  -1.000000E+01  -1.000000E+01  -1.000000E+01  -1.000000E+01  -1.000000E+01  -1.000000E+01  -1.000000E+01  -1.000000E+01  -1.000000E+01  -1.000000E+01  -1.000000E+01  -1.000000E+01  -1.000000E+01  -1.000000E+01  -1.000000E+01  -1.000000E+01  -1.000000E+01  -1.000000E+01  -1.000000E+01  -1.000000E+01  -1.000000E+01  -1.000000E+01  -1.000000E+01  -1.000000E+01  -1.000000E+01  -1.000000E+01  -1.000000E+01  -1.000000E+01  -1.000000E+01  -1.000000E+01  -1.000000E+01  -1.000000E+01  -1.000000E+01  -1.000000E+01  -1.000000E+01  -1.000000E+01  -1.000000E+01  -1.000000E+01  -1.000000E+01  -1.000000E+01  -1.000000E+01  -1.000000E+01  -1.000000E+01  -1.000000E+01  -1.000000E+01  -1.000000E+01  -1.000000E+01  -1.000000E+01  -1.000000E+01  -1.000000E+01  -1.000000E+01  -1.000000E+01  -1.000000E+01  -1.000000E+01
  -1.000000E+01  -1.000000E+01  -1.000000E+01  -1.000000E+01  -1.000000E+01  -1.000000E+01  -1.000000E+01  -1.000000E+01  -1.000000E+01  -1.000000E+01  -1.000000E+01  -1.000000E+01  -1.000000E+01  -1.000000E+01  -1.000000E+01  -1.000000E+01  -1.000000E+01  -1.000000E+01  -1.000000E+01  -1.000000E+01  -1.000000E+01  -1.000000E+01  -1.000000E+01  -1.000000E+01  -1.000000E+01  -1.000000E+01  -1.000000E+01  -1.000000E+01  -1.000000E+01  -1.000000E+01  -1.000000E+01  -1.000000E+01  -1.000000E+01  -1.000000E+01  -1.000000E+01  -1.000000E+01  -1.000000E+01  -1.000000E+01  -1.000000E+01  -1.000000E+01  -1.000000E+01  -1.000000E+01  -1.000000E+01  -1.000000E+01  -1.000000E+01  -1.000000E+01  -1.000000E+01  -1.000000E+01  -1.000000E+01  -1.000000E+01  -1.000000E+01  -1.000000E+01  -1.000000E+01  -1.000000E+01  -1.000000E+01  -1.000000E+01  -1.000000E+01  -1.000000E+01  -1.000000E+01  -1.000000E+01  -1.000000E+01
  -1.000000E+01  -1.000000E+01  -1.000000E+01  -1.000000E+01  -1.000000E+01  -1.000000E+01  -1.000000E+01  -1.000000E+01  -1.000000E+01  -1.000000E+01  -1.000000E+01  -1.000000E+01  -1.000000E+01  -1.000000E+01  -1.000000E+01  -1.000000E+01  -1.000000E+01  -1.000000E+01  -1.000000E+01  -1.000000E+01  -1.000000E+01  -1.000000E+01  -1.000000E+01  -1.000000E+01  -1.000000E+01  -1.000000E+01  -1.000000E+01  -1.000000E+01  -1.000000E+01  -1.000000E+01  -1.000000E+01  -1.000000E+01  -1.000000E+01  -1.000000E+01  -1.000000E+01  -1.000000E+01  -1.000000E+01  -1.000000E+01  -1.000000E+01  -1.000000E+01  -1.000000E+01  -1.000000E+01  -1.000000E+01  -1.000000E+01  -1.000000E+01  -1.000000E+01  -1.000000E+01  -1.000000E+01  -1.000000E+01  -1.000000E+01  -1.000000E+01  -1.000000E+01  -1.000000E+01  -1.000000E+01  -1.000000E+01  -1.000000E+01  -1.000000E+01  -1.000000E+01  -1.000000E+01  -1.000000E+01  -1.000000E+01
  -1.000000E+01  -1.000000E+01  -1.000000E+01  -1.000000E+01  -1.000000E+01  -1.000000E+01  -1.000000E+01  -1.000000E+01  -1.000000E+01  -1.000000E+01  -1.000000E+01  -1.000000E+01  -1.000000E+01  -1.000000E+01  -1.000000E+01  -1.000000E+01  -1.000000E+01  -1.000000E+01  -1.000000E+01  -1.000000E+01  -1.000000E+01  -1.000000E+01  -1.000000E+01  -1.000000E+01  -1.000000E+01  -1.000000E+01  -1.000000E+01  -1.000000E+01  -1.000000E+01  -1.000000E+01  -1.000000E+01  -1.000000E+01  -1.000000E+01  -1.000000E+01  -1.000000E+01  -1.000000E+01  -1.000000E+01  -1.000000E+01  -1.000000E+01  -1.000000E+01  -1.000000E+01  -1.000000E+01  -1.000000E+01  -1.000000E+01  -1.000000E+01  -1.000000E+01  -1.000000E+01  -1.000000E+01  -1.000000E+01  -1.000000E+01  -1.000000E+01  -1.000000E+01  -1.000000E+01  -1.000000E+01  -1.000000E+01  -1.000000E+01  -1.000000E+01  -1.000000E+01  -1.000000E+01  -1.000000E+01  -1.000000E+01
  -1.000000E+01  -1.000000E+01  -1.000000E+01  -1.000000E+01  -1.000000E+01  -1.000000E+01  -1.000000E+01  -1.000000E+01  -1.000000E+01  -1.000000E+01  -1.000000E+01  -1.000000E+01  -1.000000E+01  -1.000000E+01  -1.000000E+01  -1.000000E+01  -1.000000E+01  -1.000000E+01  -1.000000E+01  -1.000000E+01  -1.000000E+01  -1.000000E+01  -1.000000E+01  -1.000000E+01  -1.000000E+01  -1.000000E+01  -1.000000E+01  -1.000000E+01  -1.000000E+01  -1.000000E+01  -1.000000E+01  -1.000000E+01  -1.000000E+01  -1.000000E+01  -1.000000E+01  -1.000000E+01  -1.000000E+01  -1.000000E+01  -1.000000E+01  -1.000000E+01  -1.000000E+01  -1.000000E+01  -1.000000E+01  -1.000000E+01  -1.000000E+01  -1.000000E+01  -1.000000E+01  -1.000000E+01  -1.000000E+01  -1.000000E+01  -1.000000E+01  -1.000000E+01  -1.000000E+01  -1.000000E+01  -1.000000E+01  -1.000000E+01  -1.000000E+01  -1.000000E+01  -1.000000E+01  -1.000000E+01  -1.000000E+01
  -1.000000E+01  -1.000000E+01  -1.000000E+01  -1.000000E+01  -1.000000E+01  -1.000000E+01  -1.000000E+01  -1.000000E+01  -1.000000E+01  -1.000000E+01  -1.000000E+01  -1.000000E+01  -1.000000E+01  -1.000000E+01  -1.000000E+01  -1.000000E+01  -1.000000E+01  -1.000000E+01  -1.000000E+01  -1.000000E+01  -1.000000E+01  -1.000000E+01  -1.000000E+01  -1.000000E+01  -1.000000E+01  -1.000000E+01  -1.000000E+01  -1.000000E+01  -1.000000E+01  -1.000000E+01  -1.000000E+01  -1.000000E+01  -1.000000E+01  -1.000000E+01  -1.000000E+01  -1.000000E+01  -1.000000E+01  -1.000000E+01  -1.000000E+01  -1.000000E+01  -1.000000E+01  -1.000000E+01  -1.000000E+01  -1.000000E+01  -1.000000E+01  -1.000000E+01  -1.000000E+01  -1.000000E+01  -1.000000E+01  -1.000000E+01  -1.000000E+01  -1.000000E+01  -1.000000E+01  -1.000000E+01  -1.000000E+01  -1.000000E+01  -1.000000E+01  -1.000000E+01  -1.000000E+01  -1.000000E+01  -1.000000E+01
  -1.000000E+01  -1.000000E+01  -1.000000E+01  -1.000000E+01  -1.000000E+01  -1.000000E+01  -1.000000E+01  -1.000000E+01  -1.000000E+01  -1.000000E+01  -1.000000E+01  -1.000000E+01  -1.000000E+01  -1.000000E+01  -1.000000E+01  -1.000000E+01  -1.000000E+01  -1.000000E+01  -1.000000E+01  -1.000000E+01  -1.000000E+01  -1.000000E+01  -1.000000E+01  -1.000000E+01  -1.000000E+01  -1.000000E+01  -1.000000E+01  -1.000000E+01  -1.000000E+01  -1.000000E+01  -1.000000E+01  -1.000000E+01  -1.000000E+01  -1.000000E+01  -1.000000E+01  -1.000000E+01  -1.000000E+01  -1.000000E+01  -1.000000E+01  -1.000000E+01  -1.000000E+01  -1.000000E+01  -1.000000E+01  -1.000000E+01  -1.000000E+01  -1.000000E+01  -1.000000E+01  -1.000000E+01  -1.000000E+01  -1.000000E+01  -1.000000E+01  -1.000000E+01  -1.000000E+01  -1.000000E+01  -1.000000E+01  -1.000000E+01  -1.000000E+01  -1.000000E+01  -1.000000E+01  -1.000000E+01  -1.000000E+01
  -1.000000E+01  -1.000000E+01  -1.000000E+01  -1.000000E+01  -1.000000E+01  -1.000000E+01  -1.000000E+01  -1.000000E+01  -1.000000E+01  -1.000000E+01  -1.000000E+01  -1.000000E+01  -1.000000E+01  -1.000000E+01  -1.000000E+01  -1.000000E+01  -1.000000E+01  -1.000000E+01  -1.000000E+01  -1.000000E+01  -1.000000E+01  -1.000000E+01  -1.000000E+01  -1.000000E+01  -1.000000E+01  -1.000000E+01  -1.000000E+01  -1.000000E+01  -1.000000E+01  -1.000000E+01  -1.000000E+01  -1.000000E+01  -1.000000E+01  -1.000000E+01  -1.000000E+01  -1.000000E+01  -1.000000E+01  -1.000000E+01  -1.000000E+01  -1.000000E+01  -1.000000E+01  -1.000000E+01  -1.000000E+01  -1.000000E+01  -1.000000E+01  -1.000000E+01  -1.000000E+01  -1.000000E+01  -1.000000E+01  -1.000000E+01  -1.000000E+01  -1.000000E+01  -1.000000E+01  -1.000000E+01  -1.000000E+01  -1.000000E+01  -1.000000E+01  -1.000000E+01  -1.000000E+01  -1.000000E+01  -1.000000E+01
  -1.000000E+01  -1.000000E+01  -1.000000E+01  -1.000000E+01  -1.000000E+01  -1.000000E+01  -1.000000E+01  -1.000000E+01  -1.000000E+01  -1.000000E+01  -1.000000E+01  -1.000000E+01  -1.000000E+01  -1.000000E+01  -1.000000E+01  -1.000000E+01  -1.000000E+01  -1.000000E+01  -1.000000E+01  -1.000000E+01  -1.000000E+01  -1.000000E+01  -1.000000E+01  -1.000000E+01  -1.000000E+01  -1.000000E+01  -1.000000E+01  -1.000000E+01  -1.000000E+01  -1.000000E+01  -1.000000E+01  -1.000000E+01  -1.000000E+01  -1.000000E+01  -1.000000E+01  -1.000000E+01  -1.000000E+01  -1.000000E+01  -1.000000E+01  -1.000000E+01  -1.000000E+01  -1.000000E+01  -1.000000E+01  -1.000000E+01  -1.000000E+01  -1.000000E+01  -1.000000E+01  -1.000000E+01  -1.000000E+01  -1.000000E+01  -1.000000E+01  -1.000000E+01  -1.000000E+01  -1.000000E+01  -1.000000E+01  -1.000000E+01  -1.000000E+01  -1.000000E+01  -1.000000E+01  -1.000000E+01  -1.000000E+01
  -1.000000E+01  -1.000000E+01  -1.000000E+01  -1.000000E+01  -1.000000E+01  -1.000000E+01  -1.000000E+01  -1.000000E+01  -1.000000E+01  -1.000000E+01  -1.000000E+01  -1.000000E+01  -1.000000E+01  -1.000000E+01  -1.000000E+01  -1.000000E+01  -1.000000E+01  -1.000000E+01  -1.000000E+01  -1.000000E+01  -1.000000E+01  -1.000000E+01  -1.000000E+01  -1.000000E+01  -1.000000E+01  -1.000000E+01  -1.000000E+01  -1.000000E+01  -1.000000E+01  -1.000000E+01  -1.000000E+01  -1.000000E+01  -1.000000E+01  -1.000000E+01  -1.000000E+01  -1.000000E+01  -1.000000E+01  -1.000000E+01  -1.000000E+01  -1.000000E+01  -1.000000E+01  -1.000000E+01  -1.000000E+01  -1.000000E+01  -1.000000E+01  -1.000000E+01  -1.000000E+01  -1.000000E+01  -1.000000E+01  -1.000000E+01  -1.000000E+01  -1.000000E+01  -1.000000E+01  -1.000000E+01  -1.000000E+01  -1.000000E+01  -1.000000E+01  -1.000000E+01  -1.000000E+01  -1.000000E+01  -1.000000E+01
  -1.000000E+01  -1.000000E+01  -1.000000E+01  -1.000000E+01  -1.000000E+01  -1.000000E+01  -1.000000E+01  -1.000000E+01  -1.000000E+01  -1.000000E+01  -1.100000E+01  -1.100000E+01  -1.100000E+01  -1.100000E+01  -1.100000E+01  -1.100000E+01  -1.100000E+01  -1.100000E+01  -1.100000E+01  -1.100000E+01  -1.100000E+01  -1.100000E+01  -1.100000E+01  -1.100000E+01  -1.100000E+01  -1.100000E+01  -1.100000E+01  -1.100000E+01  -1.100000E+01  -1.100000E+01  -1.100000E+01  -1.100000E+01  -1.100000E+01  -1.100000E+01  -1.100000E+01  -1.100000E+01  -1.100000E+01  -1.100000E+01  -1.100000E+01  -1.100000E+01  -1.100000E+01  -1.100000E+01  -1.100000E+01  -1.100000E+01  -1.100000E+01  -1.100000E+01  -1.100000E+01  -1.100000E+01  -1.100000E+01  -1.100000E+01  -1.100000E+01  -1.000000E+01  -1.000000E+01  -1.000000E+01  -1.000000E+01  -1.000000E+01  -1.000000E+01  -1.000000E+01  -1.000000E+01  -1.000000E+01  -1.000000E+01
  -1.000000E+01  -1.000000E+01  -1.000000E+01  -1.000000E+01  -1.000000E+01  -1.000000E+01  -1.000000E+01  -1.000000E+01  -1.000000E+01  -1.000000E+01  -1.100000E+01  -1.100000E+01  -1.100000E+01  -1.100000E+01  -1.100000E+01  -1.100000E+01  -1.100000E+01  -1.100000E+01  -1.100000E+01  -1.100000E+01  -1.100000E+01  -1.100000E+01  -1.100000E+01  -1.100000E+01  -1.100000E+01  -1.100000E+01  -1.100000E+01  -1.100000E+01  -1.100000E+01  -1.100000E+01  -1.100000E+01  -1.100000E+01  -1.100000E+01  -1.100000E+01  -1.100000E+01  -1.100000E+01  -1.100000E+01  -1.100000E+01  -1.100000E+01  -1.100000E+01  -1.100000E+01  -1.100000E+01  -1.100000E+01  -1.100000E+01  -1.100000E+01  -1.100000E+01  -1.100000E+01  -1.100000E+01  -1.100000E+01  -1.100000E+01  -1.100000E+01  -1.000000E+01  -1.000000E+01  -1.000000E+01  -1.000000E+01  -1.000000E+01  -1.000000E+01  -1.000000E+01  -1.000000E+01  -1.000000E+01  -1.000000E+01
  -1.000000E+01  -1.000000E+01  -1.000000E+01  -1.000000E+01  -1.000000E+01  -1.000000E+01  -1.000000E+01  -1.000000E+01  -1.000000E+01  -1.000000E+01  -1.100000E+01  -1.100000E+01  -1.100000E+01  -1.100000E+01  -1.100000E+01  -1.100000E+01  -1.100000E+01  -1.100000E+01  -1.100000E+01  -1.100000E+01  -1.100000E+01  -1.100000E+01  -1.100000E+01  -1.100000E+01  -1.100000E+01  -1.100000E+01  -1.100000E+01  -1.100000E+01  -1.100000E+01  -1.100000E+01  -1.100000E+01  -1.100000E+01  -1.100000E+01  -1.100000E+01  -1.100000E+01  -1.100000E+01  -1.100000E+01  -1.100000E+01  -1.100000E+01  -1.100000E+01  -1.100000E+01  -1.100000E+01  -1.100000E+01  -1.100000E+01  -1.100000E+01  -1.100000E+01  -1.100000E+01  -1.100000E+01  -1.100000E+01  -1.100000E+01  -1.100000E+01  -1.000000E+01  -1.000000E+01  -1.000000E+01  -1.000000E+01  -1.000000E+01  -1.000000E+01  -1.000000E+01  -1.000000E+01  -1.000000E+01  -1.000000E+01
  -1.000000E+01  -1.000000E+01  -1.000000E+01  -1.000000E+01  -1.000000E+01  -1.000000E+01  -1.000000E+01  -1.000000E+01  -1.000000E+01  -1.000000E+01  -1.100000E+01  -1.100000E+01  -1.100000E+01  -1.100000E+01  -1.100000E+01  -1.100000E+01  -1.100000E+01  -1.100000E+01  -1.100000E+01  -1.100000E+01  -1.100000E+01  -1.100000E+01  -1.100000E+01  -1.100000E+01  -1.100000E+01  -1.100000E+01  -1.100000E+01  -1.100000E+01  -1.100000E+01  -1.100000E+01  -1.100000E+01  -1.100000E+01  -1.100000E+01  -1.100000E+01  -1.100000E+01  -1.100000E+01  -1.100000E+01  -1.100000E+01  -1.100000E+01  -1.100000E+01  -1.100000E+01  -1.100000E+01  -1.100000E+01  -1.100000E+01  -1.100000E+01  -1.100000E+01  -1.100000E+01  -1.100000E+01  -1.100000E+01  -1.100000E+01  -1.100000E+01  -1.000000E+01  -1.000000E+01  -1.000000E+01  -1.000000E+01  -1.000000E+01  -1.000000E+01  -1.000000E+01  -1.000000E+01  -1.000000E+01  -1.000000E+01
  -1.000000E+01  -1.000000E+01  -1.000000E+01  -1.000000E+01  -1.000000E+01  -1.000000E+01  -1.000000E+01  -1.000000E+01  -1.000000E+01  -1.000000E+01  -1.100000E+01  -1.100000E+01  -1.100000E+01  -1.100000E+01  -1.100000E+01  -1.100000E+01  -1.100000E+01  -1.100000E+01  -1.100000E+01  -1.100000E+01  -1.100000E+01  -1.100000E+01  -1.100000E+01  -1.100000E+01  -1.100000E+01  -1.100000E+01  -1.100000E+01  -1.100000E+01  -1.100000E+01  -1.100000E+01  -1.100000E+01  -1.100000E+01  -1.100000E+01  -1.100000E+01  -1.100000E+01  -1.100000E+01  -1.100000E+01  -1.100000E+01  -1.100000E+01  -1.100000E+01  -1.100000E+01  -1.100000E+01  -1.100000E+01  -1.100000E+01  -1.100000E+01  -1.100000E+01  -1.100000E+01  -1.100000E+01  -1.100000E+01  -1.100000E+01  -1.100000E+01  -1.000000E+01  -1.000000E+01  -1.000000E+01  -1.000000E+01  -1.000000E+01  -1.000000E+01  -1.000000E+01  -1.000000E+01  -1.000000E+01  -1.000000E+01
  -1.000000E+01  -1.000000E+01  -1.000000E+01  -1.000000E+01  -1.000000E+01  -1.000000E+01  -1.000000E+01  -1.000000E+01  -1.000000E+01  -1.000000E+01  -1.100000E+01  -1.100000E+01  -1.100000E+01  -1.100000E+01  -1.100000E+01  -1.100000E+01  -1.100000E+01  -1.100000E+01  -1.100000E+01  -1.100000E+01  -1.100000E+01  -1.100000E+01  -1.100000E+01  -1.100000E+01  -1.100000E+01  -1.100000E+01  -1.100000E+01  -1.100000E+01  -1.100000E+01  -1.100000E+01  -1.100000E+01  -1.100000E+01  -1.100000E+01  -1.100000E+01  -1.100000E+01  -1.100000E+01  -1.100000E+01  -1.100000E+01  -1.100000E+01  -1.100000E+01  -1.100000E+01  -1.100000E+01  -1.100000E+01  -1.100000E+01  -1.100000E+01  -1.100000E+01  -1.100000E+01  -1.100000E+01  -1.100000E+01  -1.100000E+01  -1.100000E+01  -1.000000E+01  -1.000000E+01  -1.000000E+01  -1.000000E+01  -1.000000E+01  -1.000000E+01  -1.000000E+01  -1.000000E+01  -1.000000E+01  -1.000000E+01
  -1.000000E+01  -1.000000E+01  -1.000000E+01  -1.000000E+01  -1.000000E+01  -1.000000E+01  -1.000000E+01  -1.000000E+01  -1.000000E+01  -1.000000E+01  -1.100000E+01  -1.100000E+01  -1.100000E+01  -1.100000E+01  -1.100000E+01  -1.100000E+01  -1.100000E+01  -1.100000E+01  -1.100000E+01  -1.100000E+01  -1.100000E+01  -1.100000E+01  -1.100000E+01  -1.100000E+01  -1.100000E+01  -1.100000E+01  -1.100000E+01  -1.100000E+01  -1.100000E+01  -1.100000E+01  -1.100000E+01  -1.100000E+01  -1.100000E+01  -1.100000E+01  -1.100000E+01  -1.100000E+01  -1.100000E+01  -1.100000E+01  -1.100000E+01  -1.100000E+01  -1.100000E+01  -1.100000E+01  -1.100000E+01  -1.100000E+01  -1.100000E+01  -1.100000E+01  -1.100000E+01  -1.100000E+01  -1.100000E+01  -1.100000E+01  -1.100000E+01  -1.000000E+01  -1.000000E+01  -1.000000E+01  -1.000000E+01  -1.000000E+01  -1.000000E+01  -1.000000E+01  -1.000000E+01  -1.000000E+01  -1.000000E+01
  -1.000000E+01  -1.000000E+01  -1.000000E+01  -1.000000E+01  -1.000000E+01  -1.000000E+01  -1.000000E+01  -1.000000E+01  -1.000000E+01  -1.000000E+01  -1.100000E+01  -1.100000E+01  -1.100000E+01  -1.100000E+01  -1.100000E+01  -1.100000E+01  -1.100000E+01  -1.100000E+01  -1.100000E+01  -1.100000E+01  -1.100000E+01  -1.100000E+01  -1.100000E+01  -1.100000E+01  -1.100000E+01  -1.100000E+01  -1.100000E+01  -1.100000E+01  -1.100000E+01  -1.100000E+01  -1.100000E+01  -1.100000E+01  -1.100000E+01  -1.100000E+01  -1.100000E+01  -1.100000E+01  -1.100000E+01  -1.100000E+01  -1.100000E+01  -1.100000E+01  -1.100000E+01  -1.100000E+01  -1.100000E+01  -1.100000E+01  -1.100000E+01  -1.100000E+01  -1.100000E+01  -1.100000E+01  -1.100000E+01  -1.100000E+01  -1.100000E+01  -1.000000E+01  -1.000000E+01  -1.000000E+01  -1.000000E+01  -1.000000E+01  -1.000000E+01  -1.000000E+01  -1.000000E+01  -1.000000E+01  -1.000000E+01
  -1.000000E+01  -1.000000E+01  -1.000000E+01  -1.000000E+01  -1.000000E+01  -1.000000E+01  -1.000000E+01  -1.000000E+01  -1.000000E+01  -1.000000E+01  -1.100000E+01  -1.100000E+01  -1.100000E+01  -1.100000E+01  -1.100000E+01  -1.100000E+01  -1.100000E+01  -1.100000E+01  -1.100000E+01  -1.100000E+01  -1.100000E+01  -1.100000E+01  -1.100000E+01  -1.100000E+01  -1.100000E+01  -1.100000E+01  -1.100000E+01  -1.100000E+01  -1.100000E+01  -1.100000E+01  -1.100000E+01  -1.100000E+01  -1.100000E+01  -1.100000E+01  -1.100000E+01  -1.100000E+01  -1.100000E+01  -1.100000E+01  -1.100000E+01  -1.100000E+01  -1.100000E+01  -1.100000E+01  -1.100000E+01  -1.100000E+01  -1.100000E+01  -1.100000E+01  -1.100000E+01  -1.100000E+01  -1.100000E+01  -1.100000E+01  -1.100000E+01  -1.000000E+01  -1.000000E+01  -1.000000E+01  -1.000000E+01  -1.000000E+01  -1.000000E+01  -1.000000E+01  -1.000000E+01  -1.000000E+01  -1.000000E+01
  -1.000000E+01  -1.000000E+01  -1.000000E+01  -1.000000E+01  -1.000000E+01  -1.000000E+01  -1.000000E+01  -1.000000E+01  -1.000000E+01  -1.000000E+01  -1.100000E+01  -1.100000E+01  -1.100000E+01  -1.100000E+01  -1.100000E+01  -1.100000E+01  -1.100000E+01  -1.100000E+01  -1.100000E+01  -1.100000E+01  -1.100000E+01  -1.100000E+01  -1.100000E+01  -1.100000E+01  -1.100000E+01  -1.100000E+01  -1.100000E+01  -1.100000E+01  -1.100000E+01  -1.100000E+01  -1.100000E+01  -1.100000E+01  -1.100000E+01  -1.100000E+01  -1.100000E+01  -1.100000E+01  -1.100000E+01  -1.100000E+01  -1.100000E+01  -1.100000E+01  -1.100000E+01  -1.100000E+01  -1.100000E+01  -1.100000E+01  -1.100000E+01  -1.100000E+01  -1.100000E+01  -1.100000E+01  -1.100000E+01  -1.100000E+01  -1.100000E+01  -1.000000E+01  -1.000000E+01  -1.000000E+01  -1.000000E+01  -1.000000E+01  -1.000000E+01  -1.000000E+01  -1.000000E+01  -1.000000E+01  -1.000000E+01
  -1.000000E+01  -1.000000E+01  -1.000000E+01  -1.000000E+01  -1.000000E+01  -1.000000E+01  -1.000000E+01  -1.000000E+01  -1.000000E+01  -1.000000E+01  -1.100000E+01  -1.100000E+01  -1.100000E+01  -1.100000E+01  -1.100000E+01  -1.100000E+01  -1.100000E+01  -1.100000E+01  -1.100000E+01  -1.100000E+01  -1.100000E+01  -1.100000E+01  -1.100000E+01  -1.100000E+01  -1.100000E+01  -1.100000E+01  -1.100000E+01  -1.100000E+01  -1.100000E+01  -1.100000E+01  -1.100000E+01  -1.100000E+01  -1.100000E+01  -1.100000E+01  -1.100000E+01  -1.100000E+01  -1.100000E+01  -1.100000E+01  -1.100000E+01  -1.100000E+01  -1.100000E+01  -1.100000E+01  -1.100000E+01  -1.100000E+01  -1.100000E+01  -1.100000E+01  -1.100000E+01  -1.100000E+01  -1.100000E+01  -1.100000E+01  -1.100000E+01  -1.000000E+01  -1.000000E+01  -1.000000E+01  -1.000000E+01  -1.000000E+01  -1.000000E+01  -1.000000E+01  -1.000000E+01  -1.000000E+01  -1.000000E+01
  -1.000000E+01  -1.000000E+01  -1.000000E+01  -1.000000E+01  -1.000000E+01  -1.000000E+01  -1.000000E+01  -1.000000E+01  -1.000000E+01  -1.000000E+01  -1.100000E+01  -1.100000E+01  -1.100000E+01  -1.100000E+01  -1.100000E+01  -1.100000E+01  -1.100000E+01  -1.100000E+01  -1.100000E+01  -1.100000E+01  -1.100000E+01  -1.100000E+01  -1.100000E+01  -1.100000E+01  -1.100000E+01  -1.100000E+01  -1.100000E+01  -1.100000E+01  -1.100000E+01  -1.100000E+01  -1.100000E+01  -1.100000E+01  -1.100000E+01  -1.100000E+01  -1.100000E+01  -1.100000E+01  -1.100000E+01  -1.100000E+01  -1.100000E+01  -1.100000E+01  -1.100000E+01  -1.100000E+01  -1.100000E+01  -1.100000E+01  -1.100000E+01  -1.100000E+01  -1.100000E+01  -1.100000E+01  -1.100000E+01  -1.100000E+01  -1.100000E+01  -1.000000E+01  -1.000000E+01  -1.000000E+01  -1.000000E+01  -1.000000E+01  -1.000000E+01  -1.000000E+01  -1.000000E+01  -1.000000E+01  -1.000000E+01
  -1.000000E+01  -1.000000E+01  -1.000000E+01  -1.000000E+01  -1.000000E+01  -1.000000E+01  -1.000000E+01  -1.000000E+01  -1.000000E+01  -1.000000E+01  -1.100000E+01  -1.100000E+01  -1.100000E+01  -1.100000E+01  -1.100000E+01  -1.100000E+01  -1.100000E+01  -1.100000E+01  -1.100000E+01  -1.100000E+01  -1.100000E+01  -1.100000E+01  -1.100000E+01  -1.100000E+01  -1.100000E+01  -1.100000E+01  -1.100000E+01  -1.100000E+01  -1.100000E+01  -1.100000E+01  -1.100000E+01  -1.100000E+01  -1.100000E+01  -1.100000E+01  -1.100000E+01  -1.100000E+01  -1.100000E+01  -1.100000E+01  -1.100000E+01  -1.100000E+01  -1.100000E+01  -1.100000E+01  -1.100000E+01  -1.100000E+01  -1.100000E+01  -1.100000E+01  -1.100000E+01  -1.100000E+01  -1.100000E+01  -1.100000E+01  -1.100000E+01  -1.000000E+01  -1.000000E+01  -1.000000E+01  -1.000000E+01  -1.000000E+01  -1.000000E+01  -1.000000E+01  -1.000000E+01  -1.000000E+01  -1.000000E+01
  -1.000000E+01  -1.000000E+01  -1.000000E+01  -1.000000E+01  -1.000000E+01  -1.000000E+01  -1.000000E+01  -1.000000E+01  -1.000000E+01  -1.000000E+01  -1.100000E+01  -1.100000E+01  -1.100000E+01  -1.100000E+01  -1.100000E+01  -1.100000E+01  -1.100000E+01  -1.100000E+01  -1.100000E+01  -1.100000E+01  -1.100000E+01  -1.100000E+01  -1.100000E+01  -1.100000E+01  -1.100000E+01  -1.100000E+01  -1.100000E+01  -1.100000E+01  -1.100000E+01  -1.100000E+01  -1.100000E+01  -1.100000E+01  -1.100000E+01  -1.100000E+01  -1.100000E+01  -1.100000E+01  -1.100000E+01  -1.100000E+01  -1.100000E+01  -1.100000E+01  -1.100000E+01  -1.100000E+01  -1.100000E+01  -1.100000E+01  -1.100000E+01  -1.100000E+01  -1.100000E+01  -1.100000E+01  -1.100000E+01  -1.100000E+01  -1.100000E+01  -1.000000E+01  -1.000000E+01  -1.000000E+01  -1.000000E+01  -1.000000E+01  -1.000000E+01  -1.000000E+01  -1.000000E+01  -1.000000E+01  -1.000000E+01
  -1.000000E+01  -1.000000E+01  -1.000000E+01  -1.000000E+01  -1.000000E+01  -1.000000E+01  -1.000000E+01  -1.000000E+01  -1.000000E+01  -1.000000E+01  -1.100000E+01  -1.100000E+01  -1.100000E+01  -1.100000E+01  -1.100000E+01  -1.100000E+01  -1.100000E+01  -1.100000E+01  -1.100000E+01  -1.100000E+01  -1.100000E+01  -1.100000E+01  -1.100000E+01  -1.100000E+01  -1.100000E+01  -1.100000E+01  -1.100000E+01  -1.100000E+01  -1.100000E+01  -1.100000E+01  -1.100000E+01  -1.100000E+01  -1.100000E+01  -1.100000E+01  -1.100000E+01  -1.100000E+01  -1.100000E+01  -1.100000E+01  -1.100000E+01  -1.100000E+01  -1.100000E+01  -1.100000E+01  -1.100000E+01  -1.100000E+01  -1.100000E+01  -1.100000E+01  -1.100000E+01  -1.100000E+01  -1.100000E+01  -1.100000E+01  -1.100000E+01  -1.000000E+01  -1.000000E+01  -1.000000E+01  -1.000000E+01  -1.000000E+01  -1.000000E+01  -1.000000E+01  -1.000000E+01  -1.000000E+01  -1.000000E+01
  -1.000000E+01  -1.000000E+01  -1.000000E+01  -1.000000E+01  -1.000000E+01  -1.000000E+01  -1.000000E+01  -1.000000E+01  -1.000000E+01  -1.000000E+01  -1.100000E+01  -1.100000E+01  -1.100000E+01  -1.100000E+01  -1.100000E+01  -1.100000E+01  -1.100000E+01  -1.100000E+01  -1.100000E+01  -1.100000E+01  -1.100000E+01  -1.100000E+01  -1.100000E+01  -1.100000E+01  -1.100000E+01  -1.100000E+01  -1.100000E+01  -1.100000E+01  -1.100000E+01  -1.100000E+01  -1.100000E+01  -1.100000E+01  -1.100000E+01  -1.100000E+01  -1.100000E+01  -1.100000E+01  -1.100000E+01  -1.100000E+01  -1.100000E+01  -1.100000E+01  -1.100000E+01  -1.100000E+01  -1.100000E+01  -1.100000E+01  -1.100000E+01  -1.100000E+01  -1.100000E+01  -1.100000E+01  -1.100000E+01  -1.100000E+01  -1.100000E+01  -1.000000E+01  -1.000000E+01  -1.000000E+01  -1.000000E+01  -1.000000E+01  -1.000000E+01  -1.000000E+01  -1.000000E+01  -1.000000E+01  -1.000000E+01
  -1.000000E+01  -1.000000E+01  -1.000000E+01  -1.000000E+01  -1.000000E+01  -1.000000E+01  -1.000000E+01  -1.000000E+01  -1.000000E+01  -1.000000E+01  -1.100000E+01  -1.100000E+01  -1.100000E+01  -1.100000E+01  -1.100000E+01  -1.100000E+01  -1.100000E+01  -1.100000E+01  -1.100000E+01  -1.100000E+01  -1.100000E+01  -1.100000E+01  -1.100000E+01  -1.100000E+01  -1.100000E+01  -1.100000E+01  -1.100000E+01  -1.100000E+01  -1.100000E+01  -1.100000E+01  -1.100000E+01  -1.100000E+01  -1.100000E+01  -1.100000E+01  -1.100000E+01  -1.100000E+01  -1.100000E+01  -1.100000E+01  -1.100000E+01  -1.100000E+01  -1.100000E+01  -1.100000E+01  -1.100000E+01  -1.100000E+01  -1.100000E+01  -1.100000E+01  -1.100000E+01  -1.100000E+01  -1.100000E+01  -1.100000E+01  -1.100000E+01  -1.000000E+01  -1.000000E+01  -1.000000E+01  -1.000000E+01  -1.000000E+01  -1.000000E+01  -1.000000E+01  -1.000000E+01  -1.000000E+01  -1.000000E+01
  -1.000000E+01  -1.000000E+01  -1.000000E+01  -1.000000E+01  -1.000000E+01  -1.000000E+01  -1.000000E+01  -1.000000E+01  -1.000000E+01  -1.000000E+01  -1.100000E+01  -1.100000E+01  -1.100000E+01  -1.100000E+01  -1.100000E+01  -1.100000E+01  -1.100000E+01  -1.100000E+01  -1.100000E+01  -1.100000E+01  -1.100000E+01  -1.100000E+01  -1.100000E+01  -1.100000E+01  -1.100000E+01  -1.100000E+01  -1.100000E+01  -1.100000E+01  -1.100000E+01  -1.100000E+01  -1.100000E+01  -1.100000E+01  -1.100000E+01  -1.100000E+01  -1.100000E+01  -1.100000E+01  -1.100000E+01  -1.100000E+01  -1.100000E+01  -1.100000E+01  -1.100000E+01  -1.100000E+01  -1.100000E+01  -1.100000E+01  -1.100000E+01  -1.100000E+01  -1.100000E+01  -1.100000E+01  -1.100000E+01  -1.100000E+01  -1.100000E+01  -1.000000E+01  -1.000000E+01  -1.000000E+01  -1.000000E+01  -1.000000E+01  -1.000000E+01  -1.000000E+01  -1.000000E+01  -1.000000E+01  -1.000000E+01
  -1.000000E+01  -1.000000E+01  -1.000000E+01  -1.000000E+01  -1.000000E+01  -1.000000E+01  -1.000000E+01  -1.000000E+01  -1.000000E+01  -1.000000E+01  -1.100000E+01  -1.100000E+01  -1.100000E+01  -1.100000E+01  -1.100000E+01  -1.100000E+01  -1.100000E+01  -1.100000E+01  -1.100000E+01  -1.100000E+01  -1.100000E+01  -1.100000E+01  -1.100000E+01  -1.100000E+01  -1.100000E+01  -1.100000E+01  -1.100000E+01  -1.100000E+01  -1.100000E+01  -1.100000E+01  -1.100000E+01  -1.100000E+01  -1.100000E+01  -1.100000E+01  -1.100000E+01  -1.100000E+01  -1.100000E+01  -1.100000E+01  -1.100000E+01  -1.100000E+01  -1.100000E+01  -1.100000E+01  -1.100000E+01  -1.100000E+01  -1.100000E+01  -1.100000E+01  -1.100000E+01  -1.100000E+01  -1.100000E+01  -1.100000E+01  -1.100000E+01  -1.000000E+01  -1.000000E+01  -1.000000E+01  -1.000000E+01  -1.000000E+01  -1.000000E+01  -1.000000E+01  -1.000000E+01  -1.000000E+01  -1.000000E+01
  -1.000000E+01  -1.000000E+01  -1.000000E+01  -1.000000E+01  -1.000000E+01  -1.000000E+01  -1.000000E+01  -1.000000E+01  -1.000000E+01  -1.000000E+01  -1.100000E+01  -1.100000E+01  -1.100000E+01  -1.100000E+01  -1.100000E+01  -1.100000E+01  -1.100000E+01  -1.100000E+01  -1.100000E+01  -1.100000E+01  -1.100000E+01  -1.100000E+01  -1.100000E+01  -1.100000E+01  -1.100000E+01  -1.100000E+01  -1.100000E+01  -1.100000E+01  -1.100000E+01  -1.100000E+01  -1.100000E+01  -1.100000E+01  -1.100000E+01  -1.100000E+01  -1.100000E+01  -1.100000E+01  -1.100000E+01  -1.100000E+01  -1.100000E+01  -1.100000E+01  -1.100000E+01  -1.100000E+01  -1.100000E+01  -1.100000E+01  -1.100000E+01  -1.100000E+01  -1.100000E+01  -1.100000E+01  -1.100000E+01  -1.100000E+01  -1.100000E+01  -1.000000E+01  -1.000000E+01  -1.000000E+01  -1.000000E+01  -1.000000E+01  -1.000000E+01  -1.000000E+01  -1.000000E+01  -1.000000E+01  -1.000000E+01
  -1.000000E+01  -1.000000E+01  -1.000000E+01  -1.000000E+01  -1.000000E+01  -1.000000E+01  -1.000000E+01  -1.000000E+01  -1.000000E+01  -1.000000E+01  -1.100000E+01  -1.100000E+01  -1.100000E+01  -1.100000E+01  -1.100000E+01  -1.100000E+01  -1.100000E+01  -1.100000E+01  -1.100000E+01  -1.100000E+01  -1.100000E+01  -1.100000E+01  -1.100000E+01  -1.100000E+01  -1.100000E+01  -1.100000E+01  -1.100000E+01  -1.100000E+01  -1.100000E+01  -1.100000E+01  -1.100000E+01  -1.100000E+01  -1.100000E+01  -1.100000E+01  -1.100000E+01  -1.100000E+01  -1.100000E+01  -1.100000E+01  -1.100000E+01  -1.100000E+01  -1.100000E+01  -1.100000E+01  -1.100000E+01  -1.100000E+01  -1.100000E+01  -1.100000E+01  -1.100000E+01  -1.100000E+01  -1.100000E+01  -1.100000E+01  -1.100000E+01  -1.000000E+01  -1.000000E+01  -1.000000E+01  -1.000000E+01  -1.000000E+01  -1.000000E+01  -1.000000E+01  -1.000000E+01  -1.000000E+01  -1.000000E+01
  -1.000000E+01  -1.000000E+01  -1.000000E+01  -1.000000E+01  -1.000000E+01  -1.000000E+01  -1.000000E+01  -1.000000E+01  -1.000000E+01  -1.000000E+01  -1.100000E+01  -1.100000E+01  -1.100000E+01  -1.100000E+01  -1.100000E+01  -1.100000E+01  -1.100000E+01  -1.100000E+01  -1.100000E+01  -1.100000E+01  -1.100000E+01  -1.100000E+01  -1.100000E+01  -1.100000E+01  -1.100000E+01  -1.100000E+01  -1.100000E+01  -1.100000E+01  -1.100000E+01  -1.100000E+01  -1.100000E+01  -1.100000E+01  -1.100000E+01  -1.100000E+01  -1.100000E+01  -1.100000E+01  -1.100000E+01  -1.100000E+01  -1.100000E+01  -1.100000E+01  -1.100000E+01  -1.100000E+01  -1.100000E+01  -1.100000E+01  -1.100000E+01  -1.100000E+01  -1.100000E+01  -1.100000E+01  -1.100000E+01  -1.100000E+01  -1.100000E+01  -1.000000E+01  -1.000000E+01  -1.000000E+01  -1.000000E+01  -1.000000E+01  -1.000000E+01  -1.000000E+01  -1.000000E+01  -1.000000E+01  -1.000000E+01