# RCH for MODFLOW, generated by Flopy.
         3         0
         1        -1 # Stress period 1
INTERNAL               1 (61G15.6)  -1 #rech_1                        
   0.000000E+00   0.000000E+00   0.000000E+00   0.000000E+00   0.000000E+00   0.000000E+00   0.000000E+00   0.000000E+00   0.000000E+00   0.000000E+00   0.000000E+00   0.000000E+00   0.000000E+00   0.000000E+00   0.000000E+00   0.000000E+00   0.000000E+00   0.000000E+00   0.000000E+00   0.000000E+00   0.000000E+00   0.000000E+00   0.000000E+00   0.000000E+00   0.000000E+00   0.000000E+00   0.000000E+00   0.000000E+00   0.000000E+00   0.000000E+00   0.000000E+00   0.000000E+00   0.000000E+00   0.000000E+00   0.000000E+00   0.000000E+00   0.000000E+00   0.000000E+00   0.000000E+00   0.000000E+00   0.000000E+00   0.000000E+00   0.000000E+00   0.000000E+00   0.000000E+00   0.000000E+00   0.000000E+00   0.000000E+00   0.000000E+00   0.000000E+00   0.000000E+00   0.000000E+00   0.000000E+00   0.000000E+00   0.000000E+00   0.000000E+00   0.000000E+00   0.000000E+00   0.000000E+00   0.000000E+00   0.000000E+00
   0.000000E+00   0.000000E+00   0.000000E+00   0.000000E+00   0.000000E+00   0.000000E+00   0.000000E+00   0.000000E+00   0.000000E+00   0.000000E+00   0.000000E+00   0.000000E+00   0.000000E+00   0.000000E+00   0.000000E+00   0.000000E+00   0.000000E+00   0.000000E+00   0.000000E+00   0.000000E+00   0.000000E+00   0.000000E+00   0.000000E+00   0.000000E+00   0.000000E+00   0.000000E+00   0.000000E+00   0.000000E+00   0.000000E+00   0.000000E+00   0.000000E+00   0.000000E+00   0.000000E+00   0.000000E+00   0.000000E+00   0.000000E+00   0.000000E+00   0.000000E+00   0.000000E+00   0.000000E+00   0.000000E+00   0.000000E+00   0.000000E+00   0.000000E+00   0.000000E+00   0.000000E+00   0.000000E+00   0.000000E+00   0.000000E+00   0.000000E+00   0.000000E+00   0.000000E+00   0.000000E+00   0.000000E+00   0.000000E+00   0.000000E+00   0.000000E+00   0.000000E+00   0.000000E+00   0.000000E+00   0.000000E+00
   0.000000E+00   0.000000E+00   0.000000E+00   0.000000E+00   0.000000E+00   0.000000E+00   0.000000E+00   0.000000E+00   0.000000E+00   0.000000E+00   0.000000E+00   0.000000E+00   0.000000E+00   0.000000E+00   0.000000E+00   0.000000E+00   0.000000E+00   0.000000E+00   0.000000E+00   0.000000E+00   0.000000E+00   0.000000E+00   0.000000E+00   0.000000E+00   0.000000E+00   0.000000E+00   0.000000E+00   0.000000E+00   0.000000E+00   0.000000E+00   0.000000E+00   0.000000E+00   0.000000E+00   0.000000E+00   0.000000E+00   0.000000E+00   0.000000E+00   0.000000E+00   0.000000E+00   0.000000E+00   0.000000E+00   0.000000E+00   0.000000E+00   0.000000E+00   0.000000E+00   0.000000E+00   0.000000E+00   0.000000E+00   0.000000E+00   0.000000E+00   0.000000E+00   0.000000E+00   0.000000E+00   0.000000E+00   0.000000E+00   0.000000E+00   0.000000E+00   0.000000E+00   0.000000E+00   0.000000E+00   0.000000E+00
   0.000000E+00   0.000000E+00   0.000000E+00   0.000000E+00   0.000000E+00   0.000000E+00   0.000000E+00   0.000000E+00   0.000000E+00   0.000000E+00   0.000000E+00   0.000000E+00   0.000000E+00   0.000000E+00   0.000000E+00   0.000000E+00   0.000000E+00   0.000000E+00   0.000000E+00   0.000000E+00   0.000000E+00   0.000000E+00   0.000000E+00   0.000000E+00   0.000000E+00   0.000000E+00   0.000000E+00   0.000000E+00   0.000000E+00   0.000000E+00   0.000000E+00   0.000000E+00   0.000000E+00   0.000000E+00   0.000000E+00   0.000000E+00   0.000000E+00   0.000000E+00   0.000000E+00   0.000000E+00   0.000000E+00   0.000000E+00   0.000000E+00   0.000000E+00   0.000000E+00   0.000000E+00   0.000000E+00   0.000000E+00   0.000000E+00   0.000000E+00   0.000000E+00   0.000000E+00   0.000000E+00   0.000000E+00   0.000000E+00   0.000000E+00   0.000000E+00   0.000000E+00   0.000000E+00   0.000000E+00   0.000000E+00
   0.000000E+00   0.000000E+00   0.000000E+00   0.000000E+00   0.000000E+00   0.000000E+00   0.000000E+00   0.000000E+00   0.000000E+00   0.000000E+00   0.000000E+00   0.000000E+00   0.000000E+00   0.000000E+00   0.000000E+00   0.000000E+00   0.000000E+00   0.000000E+00   0.000000E+00   0.000000E+00   0.000000E+00   0.000000E+00   0.000000E+00   0.000000E+00   0.000000E+00   0.000000E+00   0.000000E+00   0.000000E+00   0.000000E+00   0.000000E+00   0.000000E+00   0.000000E+00   0.000000E+00   0.000000E+00   0.000000E+00   0.000000E+00   0.000000E+00   0.000000E+00   0.000000E+00   0.000000E+00   0.000000E+00   0.000000E+00   0.000000E+00   0.000000E+00   0.000000E+00   0.000000E+00   0.000000E+00   0.000000E+00   0.000000E+00   0.000000E+00   0.000000E+00   0.000000E+00   0.000000E+00   0.000000E+00   0.000000E+00   0.000000E+00   0.000000E+00   0.000000E+00   0.000000E+00   0.000000E+00   0.000000E+00
   0.000000E+00   0.000000E+00   0.000000E+00   0.000000E+00   0.000000E+00   0.000000E+00   0.000000E+00   0.000000E+00   0.000000E+00   0.000000E+00   0.000000E+00   0.000000E+00   0.000000E+00   0.000000E+00   0.000000E+00   0.000000E+00   0.000000E+00   0.000000E+00   0.000000E+00   0.000000E+00   0.000000E+00   0.000000E+00   0.000000E+00   0.000000E+00   0.000000E+00   0.000000E+00   0.000000E+00   0.000000E+00   0.000000E+00   0.000000E+00   0.000000E+00   0.000000E+00   0.000000E+00   0.000000E+00   0.000000E+00   0.000000E+00   0.000000E+00   0.000000E+00   0.000000E+00   0.000000E+00   0.000000E+00   0.000000E+00   0.000000E+00   0.000000E+00   0.000000E+00   0.000000E+00   0.000000E+00   0.000000E+00   0.000000E+00   0.000000E+00   0.000000E+00   0.000000E+00   0.000000E+00   0.000000E+00   0.000000E+00   0.000000E+00   0.000000E+00   0.000000E+00   0.000000E+00   0.000000E+00   0.000000E+00
   0.000000E+00   0.000000E+00   0.000000E+00   0.000000E+00   0.000000E+00   0.000000E+00   0.000000E+00   0.000000E+00   0.000000E+00   0.000000E+00   0.000000E+00   0.000000E+00   0.000000E+00   0.000000E+00   0.000000E+00   0.000000E+00   0.000000E+00   0.000000E+00   0.000000E+00   0.000000E+00   0.000000E+00   0.000000E+00   0.000000E+00   0.000000E+00   0.000000E+00   0.000000E+00   0.000000E+00   0.000000E+00   0.000000E+00   0.000000E+00   0.000000E+00   0.000000E+00   0.000000E+00   0.000000E+00   0.000000E+00   0.000000E+00   0.000000E+00   0.000000E+00   0.000000E+00   0.000000E+00   0.000000E+00   0.000000E+00   0.000000E+00   0.000000E+00   0.000000E+00   0.000000E+00   0.000000E+00   0.000000E+00   0.000000E+00   0.000000E+00   0.000000E+00   0.000000E+00   0.000000E+00   0.000000E+00   0.000000E+00   0.000000E+00   0.000000E+00   0.000000E+00   0.000000E+00   0.000000E+00   0.000000E+00
   0.000000E+00   0.000000E+00   0.000000E+00   0.000000E+00   0.000000E+00   0.000000E+00   0.000000E+00   0.000000E+00   0.000000E+00   0.000000E+00   0.000000E+00   0.000000E+00   0.000000E+00   0.000000E+00   0.000000E+00   0.000000E+00   0.000000E+00   0.000000E+00   0.000000E+00   0.000000E+00   0.000000E+00   0.000000E+00   0.000000E+00   0.000000E+00   0.000000E+00   0.000000E+00   0.000000E+00   0.000000E+00   0.000000E+00   0.000000E+00   0.000000E+00   0.000000E+00   0.000000E+00   0.000000E+00   0.000000E+00   0.000000E+00   0.000000E+00   0.000000E+00   0.000000E+00   0.000000E+00   0.000000E+00   0.000000E+00   0.000000E+00   0.000000E+00   0.000000E+00   0.000000E+00   0.000000E+00   0.000000E+00   0.000000E+00   0.000000E+00   0.000000E+00   0.000000E+00   0.000000E+00   0.000000E+00   0.000000E+00   0.000000E+00   0.000000E+00   0.000000E+00   0.000000E+00   0.000000E+00   0.000000E+00
   0.000000E+00   0.000000E+00   0.000000E+00   0.000000E+00   0.000000E+00   0.000000E+00   0.000000E+00   0.000000E+00   0.000000E+00   0.000000E+00   0.000000E+00   0.000000E+00   0.000000E+00   0.000000E+00   0.000000E+00   0.000000E+00   0.000000E+00   0.000000E+00   0.000000E+00   0.000000E+00   0.000000E+00   0.000000E+00   0.000000E+00   0.000000E+00   0.000000E+00   0.000000E+00   0.000000E+00   0.000000E+00   0.000000E+00   0.000000E+00   0.000000E+00   0.000000E+00   0.000000E+00   0.000000E+00   0.000000E+00   0.000000E+00   0.000000E+00   0.000000E+00   0.000000E+00   0.000000E+00   0.000000E+00   0.000000E+00   0.000000E+00   0.000000E+00   0.000000E+00   0.000000E+00   0.000000E+00   0.000000E+00   0.000000E+00   0.000000E+00   0.000000E+00   0.000000E+00   0.000000E+00   0.000000E+00   0.000000E+00   0.000000E+00   0.000000E+00   0.000000E+00   0.000000E+00   0.000000E+00   0.000000E+00
   0.000000E+00   0.000000E+00   0.000000E+00   0.000000E+00   0.000000E+00   0.000000E+00   0.000000E+00   0.000000E+00   0.000000E+00   0.000000E+00   0.000000E+00   0.000000E+00   0.000000E+00   0.000000E+00   0.000000E+00   0.000000E+00   0.000000E+00   0.000000E+00   0.000000E+00   0.000000E+00   0.000000E+00   0.000000E+00   0.000000E+00   0.000000E+00   0.000000E+00   0.000000E+00   0.000000E+00   0.000000E+00   0.000000E+00   0.000000E+00   0.000000E+00   0.000000E+00   0.000000E+00   0.000000E+00   0.000000E+00   0.000000E+00   0.000000E+00   0.000000E+00   0.000000E+00   0.000000E+00   0.000000E+00   0.000000E+00   0.000000E+00   0.000000E+00   0.000000E+00   0.000000E+00   0.000000E+00   0.000000E+00   0.000000E+00   0.000000E+00   0.000000E+00   0.000000E+00   0.000000E+00   0.000000E+00   0.000000E+00   0.000000E+00   0.000000E+00   0.000000E+00   0.000000E+00   0.000000E+00   0.000000E+00
   0.000000E+00   0.000000E+00   0.000000E+00   0.000000E+00   0.000000E+00   0.000000E+00   0.000000E+00   0.000000E+00   0.000000E+00   0.000000E+00   4.000000E-04   4.000000E-04   4.000000E-04   4.000000E-04   4.000000E-04   4.000000E-04   4.000000E-04   4.000000E-04   4.000000E-04   4.000000E-04   4.000000E-04   4.000000E-04   4.000000E-04   4.000000E-04   4.000000E-04   4.000000E-04   4.000000E-04   4.000000E-04   4.000000E-04   4.000000E-04   4.000000E-04   4.000000E-04   4.000000E-04   4.000000E-04   4.000000E-04   4.000000E-04   4.000000E-04   4.000000E-04   4.000000E-04   4.000000E-04   4.000000E-04   4.000000E-04   4.000000E-04   4.000000E-04   4.000000E-04   4.000000E-04   4.000000E-04   4.000000E-04   4.000000E-04   4.000000E-04   4.000000E-04   0.000000E+00   0.000000E+00   0.000000E+00   0.000000E+00   0.000000E+00   0.000000E+00   0.000000E+00   0.000000E+00   0.000000E+00   0.000000E+00
   0.000000E+00   0.000000E+00   0.000000E+00   0.000000E+00   0.000000E+00   0.000000E+00   0.000000E+00   0.000000E+00   0.000000E+00   0.000000E+00   4.000000E-04   4.000000E-04   4.000000E-04   4.000000E-04   4.000000E-04   4.000000E-04   4.000000E-04   4.000000E-04   4.000000E-04   4.000000E-04   4.000000E-04   4.000000E-04   4.000000E-04   4.000000E-04   4.000000E-04   4.000000E-04   4.000000E-04   4.000000E-04   4.000000E-04   4.000000E-04   4.000000E-04   4.000000E-04   4.000000E-04   4.000000E-04   4.000000E-04   4.000000E-04   4.000000E-04   4.000000E-04   4.000000E-04   4.000000E-04   4.000000E-04   4.000000E-04   4.000000E-04   4.000000E-04   4.000000E-04   4.000000E-04   4.000000E-04   4.000000E-04   4.000000E-04   4.000000E-04   4.000000E-04   0.000000E+00   0.000000E+00   0.000000E+00   0.000000E+00   0.000000E+00   0.000000E+00   0.000000E+00   0.000000E+00   0.000000E+00   0.000000E+00
   0.000000E+00   0.000000E+00   0.000000E+00   0.000000E+00   0.000000E+00   0.000000E+00   0.000000E+00   0.000000E+00   0.000000E+00   0.000000E+00   4.000000E-04   4.000000E-04   4.000000E-04   4.000000E-04   4.000000E-04   4.000000E-04   4.000000E-04   4.000000E-04   4.000000E-04   4.000000E-04   4.000000E-04   4.000000E-04   4.000000E-04   4.000000E-04   4.000000E-04   4.000000E-04   4.000000E-04   4.000000E-04   4.000000E-04   4.000000E-04   4.000000E-04   4.000000E-04   4.000000E-04   4.000000E-04   4.000000E-04   4.000000E-04   4.000000E-04   4.000000E-04   4.000000E-04   4.000000E-04   4.000000E-04   4.000000E-04   4.000000E-04   4.000000E-04   4.000000E-04   4.000000E-04   4.000000E-04   4.000000E-04   4.000000E-04   4.000000E-04   4.000000E-04   0.000000E+00   0.000000E+00   0.000000E+00   0.000000E+00   0.000000E+00   0.000000E+00   0.000000E+00   0.000000E+00   0.000000E+00   0.000000E+00
   0.000000E+00   0.000000E+00   0.000000E+00   0.000000E+00   0.000000E+00   0.000000E+00   0.000000E+00   0.000000E+00   0.000000E+00   0.000000E+00   4.000000E-04   4.000000E-04   4.000000E-04   4.000000E-04   4.000000E-04   4.000000E-04   4.000000E-04   4.000000E-04   4.000000E-04   4.000000E-04   4.000000E-04   4.000000E-04   4.000000E-04   4.000000E-04   4.000000E-04   4.000000E-04   4.000000E-04   4.000000E-04   4.000000E-04   4.000000E-04   4.000000E-04   4.000000E-04   4.000000E-04   4.000000E-04   4.000000E-04   4.000000E-04   4.000000E-04   4.000000E-04   4.000000E-04   4.000000E-04   4.000000E-04   4.000000E-04   4.000000E-04   4.000000E-04   4.000000E-04   4.000000E-04   4.000000E-04   4.000000E-04   4.000000E-04   4.000000E-04   4.000000E-04   0.000000E+00   0.000000E+00   0.000000E+00   0.000000E+00   0.000000E+00   0.000000E+00   0.000000E+00   0.000000E+00   0.000000E+00   0.000000E+00
   0.000000E+00   0.000000E+00   0.000000E+00   0.000000E+00   0.000000E+00   0.000000E+00   0.000000E+00   0.000000E+00   0.000000E+00   0.000000E+00   4.000000E-04   4.000000E-04   4.000000E-04   4.000000E-04   4.000000E-04   4.000000E-04   4.000000E-04   4.000000E-04   4.000000E-04   4.000000E-04   4.000000E-04   4.000000E-04   4.000000E-04   4.000000E-04   4.000000E-04   4.000000E-04   4.000000E-04   4.000000E-04   4.000000E-04   4.000000E-04   4.000000E-04   4.000000E-04   4.000000E-04   4.000000E-04   4.000000E-04   4.000000E-04   4.000000E-04   4.000000E-04   4.000000E-04   4.000000E-04   4.000000E-04   4.000000E-04   4.000000E-04   4.000000E-04   4.000000E-04   4.000000E-04   4.000000E-04   4.000000E-04   4.000000E-04   4.000000E-04   4.000000E-04   0.000000E+00   0.000000E+00   0.000000E+00   0.000000E+00   0.000000E+00   0.000000E+00   0.000000E+00   0.000000E+00   0.000000E+00   0.000000E+00
   0.000000E+00   0.000000E+00   0.000000E+00   0.000000E+00   0.000000E+00   0.000000E+00   0.000000E+00   0.000000E+00   0.000000E+00   0.000000E+00   4.000000E-04   4.000000E-04   4.000000E-04   4.000000E-04   4.000000E-04   4.000000E-04   4.000000E-04   4.000000E-04   4.000000E-04   4.000000E-04   4.000000E-04   4.000000E-04   4.000000E-04   4.000000E-04   4.000000E-04   4.000000E-04   4.000000E-04   4.000000E-04   4.000000E-04   4.000000E-04   4.000000E-04   4.000000E-04   4.000000E-04   4.000000E-04   4.000000E-04   4.000000E-04   4.000000E-04   4.000000E-04   4.000000E-04   4.000000E-04   4.000000E-04   4.000000E-04   4.000000E-04   4.000000E-04   4.000000E-04   4.000000E-04   4.000000E-04   4.000000E-04   4.000000E-04   4.000000E-04   4.000000E-04   0.000000E+00   0.000000E+00   0.000000E+00   0.000000E+00   0.000000E+00   0.000000E+00   0.000000E+00   0.000000E+00   0.000000E+00   0.000000E+00
   0.000000E+00   0.000000E+00   0.000000E+00   0.000000E+00   0.000000E+00   0.000000E+00   0.000000E+00   0.000000E+00   0.000000E+00   0.000000E+00   4.000000E-04   4.000000E-04   4.000000E-04   4.000000E-04   4.000000E-04   4.000000E-04   4.000000E-04   4.000000E-04   4.000000E-04   4.000000E-04   4.000000E-04   4.000000E-04   4.000000E-04   4.000000E-04   4.000000E-04   4.000000E-04   4.000000E-04   4.000000E-04   4.000000E-04   4.000000E-04   4.000000E-04   4.000000E-04   4.000000E-04   4.000000E-04   4.000000E-04   4.000000E-04   4.000000E-04   4.000000E-04   4.000000E-04   4.000000E-04   4.000000E-04   4.000000E-04   4.000000E-04   4.000000E-04   4.000000E-04   4.000000E-04   4.000000E-04   4.000000E-04   4.000000E-04   4.000000E-04   4.000000E-04   0.000000E+00   0.000000E+00   0.000000E+00   0.000000E+00   0.000000E+00   0.000000E+00   0.000000E+00   0.000000E+00   0.000000E+00   0.000000E+00
   0.000000E+00   0.000000E+00   0.000000E+00   0.000000E+00   0.000000E+00   0.000000E+00   0.000000E+00   0.000000E+00   0.000000E+00   0.000000E+00   4.000000E-04   4.000000E-04   4.000000E-04   4.000000E-04   4.000000E-04   4.000000E-04   4.000000E-04   4.000000E-04   4.000000E-04   4.000000E-04   4.000000E-04   4.000000E-04   4.000000E-04   4.000000E-04   4.000000E-04   4.000000E-04   4.000000E-04   4.000000E-04   4.000000E-04   4.000000E-04   4.000000E-04   4.000000E-04   4.000000E-04   4.000000E-04   4.000000E-04   4.000000E-04   4.000000E-04   4.000000E-04   4.000000E-04   4.000000E-04   4.000000E-04   4.000000E-04   4.000000E-04   4.000000E-04   4.000000E-04   4.000000E-04   4.000000E-04   4.000000E-04   4.000000E-04   4.000000E-04   4.000000E-04   0.000000E+00   0.000000E+00   0.000000E+00   0.000000E+00   0.000000E+00   0.000000E+00   0.000000E+00   0.000000E+00   0.000000E+00   0.000000E+00
   0.000000E+00   0.000000E+00   0.000000E+00   0.000000E+00   0.000000E+00   0.000000E+00   0.000000E+00   0.000000E+00   0.000000E+00   0.000000E+00   4.000000E-04   4.000000E-04   4.000000E-04   4.000000E-04   4.000000E-04   4.000000E-04   4.000000E-04   4.000000E-04   4.000000E-04   4.000000E-04   4.000000E-04   4.000000E-04   4.000000E-04   4.000000E-04   4.000000E-04   4.000000E-04   4.000000E-04   4.000000E-04   4.000000E-04   4.000000E-04   4.000000E-04   4.000000E-04   4.000000E-04   4.000000E-04   4.000000E-04   4.000000E-04   4.000000E-04   4.000000E-04   4.000000E-04   4.000000E-04   4.000000E-04   4.000000E-04   4.000000E-04   4.000000E-04   4.000000E-04   4.000000E-04   4.000000E-04   4.000000E-04   4.000000E-04   4.000000E-04   4.000000E-04   0.000000E+00   0.000000E+00   0.000000E+00   0.000000E+00   0.000000E+00   0.000000E+00   0.000000E+00   0.000000E+00   0.000000E+00   0.000000E+00
   0.000000E+00   0.000000E+00   0.000000E+00   0.000000E+00   0.000000E+00   0.000000E+00   0.000000E+00   0.000000E+00   0.000000E+00   0.000000E+00   4.000000E-04   4.000000E-04   4.000000E-04   4.000000E-04   4.000000E-04   4.000000E-04   4.000000E-04   4.000000E-04   4.000000E-04   4.000000E-04   4.000000E-04   4.000000E-04   4.000000E-04   4.000000E-04   4.000000E-04   4.000000E-04   4.000000E-04   4.000000E-04   4.000000E-04   4.000000E-04   4.000000E-04   4.000000E-04   4.000000E-04   4.000000E-04   4.000000E-04   4.000000E-04   4.000000E-04   4.000000E-04   4.000000E-04   4.000000E-04   4.000000E-04   4.000000E-04   4.000000E-04   4.000000E-04   4.000000E-04   4.000000E-04   4.000000E-04   4.000000E-04   4.000000E-04   4.000000E-04   4.000000E-04   0.000000E+00   0.000000E+00   0.000000E+00   0.000000E+00   0.000000E+00   0.000000E+00   0.000000E+00   0.000000E+00   0.000000E+00   0.000000E+00
   0.000000E+00   0.000000E+00   0.000000E+00   0.000000E+00   0.000000E+00   0.000000E+00   0.000000E+00   0.000000E+00   0.000000E+00   0.000000E+00   4.000000E-04   4.000000E-04   4.000000E-04   4.000000E-04   4.000000E-04   4.000000E-04   4.000000E-04   4.000000E-04   4.000000E-04   4.000000E-04   4.000000E-04   4.000000E-04   4.000000E-04   4.000000E-04   4.000000E-04   4.000000E-04   4.000000E-04   4.000000E-04   4.000000E-04   4.000000E-04   4.000000E-04   4.000000E-04   4.000000E-04   4.000000E-04   4.000000E-04   4.000000E-04   4.000000E-04   4.000000E-04   4.000000E-04   4.000000E-04   4.000000E-04   4.000000E-04   4.000000E-04   4.000000E-04   4.000000E-04   4.000000E-04   4.000000E-04   4.000000E-04   4.000000E-04   4.000000E-04   4.000000E-04   0.000000E+00   0.000000E+00   0.000000E+00   0.000000E+00   0.000000E+00   0.000000E+00   0.000000E+00   0.000000E+00   0.000000E+00   0.000000E+00
   0.000000E+00   0.000000E+00   0.000000E+00   0.000000E+00   0.000000E+00   0.000000E+00   0.000000E+00   0.000000E+00   0.000000E+00   0.000000E+00   4.000000E-04   4.000000E-04   4.000000E-04   4.000000E-04   4.000000E-04   4.000000E-04   4.000000E-04   4.000000E-04   4.000000E-04   4.000000E-04   4.000000E-04   4.000000E-04   4.000000E-04   4.000000E-04   4.000000E-04   4.000000E-04   4.000000E-04   4.000000E-04   4.000000E-04   4.000000E-04   4.000000E-04   4.000000E-04   4.000000E-04   4.000000E-04   4.000000E-04   4.000000E-04   4.000000E-04   4.000000E-04   4.000000E-04   4.000000E-04   4.000000E-04   4.000000E-04   4.000000E-04   4.000000E-04   4.000000E-04   4.000000E-04   4.000000E-04   4.000000E-04   4.000000E-04   4.000000E-04   4.000000E-04   0.000000E+00   0.000000E+00   0.000000E+00   0.000000E+00   0.000000E+00   0.000000E+00   0.000000E+00   0.000000E+00   0.000000E+00   0.000000E+00
   0.000000E+00   0.000000E+00   0.000000E+00   0.000000E+00   0.000000E+00   0.000000E+00   0.000000E+00   0.000000E+00   0.000000E+00   0.000000E+00   4.000000E-04   4.000000E-04   4.000000E-04   4.000000E-04   4.000000E-04   4.000000E-04   4.000000E-04   4.000000E-04   4.000000E-04   4.000000E-04   4.000000E-04   4.000000E-04   4.000000E-04   4.000000E-04   4.000000E-04   4.000000E-04   4.000000E-04   4.000000E-04   4.000000E-04   4.000000E-04   4.000000E-04   4.000000E-04   4.000000E-04   4.000000E-04   4.000000E-04   4.000000E-04   4.000000E-04   4.000000E-04   4.000000E-04   4.000000E-04   4.000000E-04   4.000000E-04   4.000000E-04   4.000000E-04   4.000000E-04   4.000000E-04   4.000000E-04   4.000000E-04   4.000000E-04   4.000000E-04   4.000000E-04   0.000000E+00   0.000000E+00   0.000000E+00   0.000000E+00   0.000000E+00   0.000000E+00   0.000000E+00   0.000000E+00   0.000000E+00   0.000000E+00
   0.000000E+00   0.000000E+00   0.000000E+00   0.000000E+00   0.000000E+00   0.000000E+00   0.000000E+00   0.000000E+00   0.000000E+00   0.000000E+00   4.000000E-04   4.000000E-04   4.000000E-04   4.000000E-04   4.000000E-04   4.000000E-04   4.000000E-04   4.000000E-04   4.000000E-04   4.000000E-04   4.000000E-04   4.000000E-04   4.000000E-04   4.000000E-04   4.000000E-04   4.000000E-04   4.000000E-04   4.000000E-04   4.000000E-04   4.000000E-04   4.000000E-04   4.000000E-04   4.000000E-04   4.000000E-04   4.000000E-04   4.000000E-04   4.000000E-04   4.000000E-04   4.000000E-04   4.000000E-04   4.000000E-04   4.000000E-04   4.000000E-04   4.000000E-04   4.000000E-04   4.000000E-04   4.000000E-04   4.000000E-04   4.000000E-04   4.000000E-04   4.000000E-04   0.000000E+00   0.000000E+00   0.000000E+00   0.000000E+00   0.000000E+00   0.000000E+00   0.000000E+00   0.000000E+00   0.000000E+00   0.000000E+00
   0.000000E+00   0.000000E+00   0.000000E+00   0.000000E+00   0.000000E+00   0.000000E+00   0.000000E+00   0.000000E+00   0.000000E+00   0.000000E+00   4.000000E-04   4.000000E-04   4.000000E-04   4.000000E-04   4.000000E-04   4.000000E-04   4.000000E-04   4.000000E-04   4.000000E-04   4.000000E-04   4.000000E-04   4.000000E-04   4.000000E-04   4.000000E-04   4.000000E-04   4.000000E-04   4.000000E-04   4.000000E-04   4.000000E-04   4.000000E-04   4.000000E-04   4.000000E-04   4.000000E-04   4.000000E-04   4.000000E-04   4.000000E-04   4.000000E-04   4.000000E-04   4.000000E-04   4.000000E-04   4.000000E-04   4.000000E-04   4.000000E-04   4.000000E-04   4.000000E-04   4.000000E-04   4.000000E-04   4.000000E-04   4.000000E-04   4.000000E-04   4.000000E-04   0.000000E+00   0.000000E+00   0.000000E+00   0.000000E+00   0.000000E+00   0.000000E+00   0.000000E+00   0.000000E+00   0.000000E+00   0.000000E+00
   0.000000E+00   0.000000E+00   0.000000E+00   0.000000E+00   0.000000E+00   0.000000E+00   0.000000E+00   0.000000E+00   0.000000E+00   0.000000E+00   4.000000E-04   4.000000E-04   4.000000E-04   4.000000E-04   4.000000E-04   4.000000E-04   4.000000E-04   4.000000E-04   4.000000E-04   4.000000E-04   4.000000E-04   4.000000E-04   4.000000E-04   4.000000E-04   4.000000E-04   4.000000E-04   4.000000E-04   4.000000E-04   4.000000E-04   4.000000E-04   4.000000E-04   4.000000E-04   4.000000E-04   4.000000E-04   4.000000E-04   4.000000E-04   4.000000E-04   4.000000E-04   4.000000E-04   4.000000E-04   4.000000E-04   4.000000E-04   4.000000E-04   4.000000E-04   4.000000E-04   4.000000E-04   4.000000E-04   4.000000E-04   4.000000E-04   4.000000E-04   4.000000E-04   0.000000E+00   0.000000E+00   0.000000E+00   0.000000E+00   0.000000E+00   0.000000E+00   0.000000E+00   0.000000E+00   0.000000E+00   0.000000E+00
   0.000000E+00   0.000000E+00   0.000000E+00   0.000000E+00   0.000000E+00   0.000000E+00   0.000000E+00   0.000000E+00   0.000000E+00   0.000000E+00   4.000000E-04   4.000000E-04   4.000000E-04   4.000000E-04   4.000000E-04   4.000000E-04   4.000000E-04   4.000000E-04   4.000000E-04   4.000000E-04   4.000000E-04   4.000000E-04   4.000000E-04   4.000000E-04   4.000000E-04   4.000000E-04   4.000000E-04   4.000000E-04   4.000000E-04   4.000000E-04   4.000000E-04   4.000000E-04   4.000000E-04   4.000000E-04   4.000000E-04   4.000000E-04   4.000000E-04   4.000000E-04   4.000000E-04   4.000000E-04   4.000000E-04   4.000000E-04   4.000000E-04   4.000000E-04   4.000000E-04   4.000000E-04   4.000000E-04   4.000000E-04   4.000000E-04   4.000000E-04   4.000000E-04   0.000000E+00   0.000000E+00   0.000000E+00   0.000000E+00   0.000000E+00   0.000000E+00   0.000000E+00   0.000000E+00   0.000000E+00   0.000000E+00
   0.000000E+00   0.000000E+00   0.000000E+00   0.000000E+00   0.000000E+00   0.000000E+00   0.000000E+00   0.000000E+00   0.000000E+00   0.000000E+00   4.000000E-04   4.000000E-04   4.000000E-04   4.000000E-04   4.000000E-04   4.000000E-04   4.000000E-04   4.000000E-04   4.000000E-04   4.000000E-04   4.000000E-04   4.000000E-04   4.000000E-04   4.000000E-04   4.000000E-04   4.000000E-04   4.000000E-04   4.000000E-04   4.000000E-04   4.000000E-04   4.000000E-04   4.000000E-04   4.000000E-04   4.000000E-04   4.000000E-04   4.000000E-04   4.000000E-04   4.000000E-04   4.000000E-04   4.000000E-04   4.000000E-04   4.000000E-04   4.000000E-04   4.000000E-04   4.000000E-04   4.000000E-04   4.000000E-04   4.000000E-04   4.000000E-04   4.000000E-04   4.000000E-04   0.000000E+00   0.000000E+00   0.000000E+00   0.000000E+00   0.000000E+00   0.000000E+00   0.000000E+00   0.000000E+00   0.000000E+00   0.000000E+00
   0.000000E+00   0.000000E+00   0.000000E+00   0.000000E+00   0.000000E+00   0.000000E+00   0.000000E+00   0.000000E+00   0.000000E+00   0.000000E+00   4.000000E-04   4.000000E-04   4.000000E-04   4.000000E-04   4.000000E-04   4.000000E-04   4.000000E-04   4.000000E-04   4.000000E-04   4.000000E-04   4.000000E-04   4.000000E-04   4.000000E-04   4.000000E-04   4.000000E-04   4.000000E-04   4.000000E-04   4.000000E-04   4.000000E-04   4.000000E-04   4.000000E-04   4.000000E-04   4.000000E-04   4.000000E-04   4.000000E-04   4.000000E-04   4.000000E-04   4.000000E-04   4.000000E-04   4.000000E-04   4.000000E-04   4.000000E-04   4.000000E-04   4.000000E-04   4.000000E-04   4.000000E-04   4.000000E-04   4.000000E-04   4.000000E-04   4.000000E-04   4.000000E-04   0.000000E+00   0.000000E+00   0.000000E+00   0.000000E+00   0.000000E+00   0.000000E+00   0.000000E+00   0.000000E+00   0.000000E+00   0.000000E+00
   0.000000E+00   0.000000E+00   0.000000E+00   0.000000E+00   0.000000E+00   0.000000E+00   0.000000E+00   0.000000E+00   0.000000E+00   0.000000E+00   4.000000E-04   4.000000E-04   4.000000E-04   4.000000E-04   4.000000E-04   4.000000E-04   4.000000E-04   4.000000E-04   4.000000E-04   4.000000E-04   4.000000E-04   4.000000E-04   4.000000E-04   4.000000E-04   4.000000E-04   4.000000E-04   4.000000E-04   4.000000E-04   4.000000E-04   4.000000E-04   4.000000E-04   4.000000E-04   4.000000E-04   4.000000E-04   4.000000E-04   4.000000E-04   4.000000E-04   4.000000E-04   4.000000E-04   4.000000E-04   4.000000E-04   4.000000E-04   4.000000E-04   4.000000E-04   4.000000E-04   4.000000E-04   4.000000E-04   4.000000E-04   4.000000E-04   4.000000E-04   4.000000E-04   0.000000E+00   0.000000E+00   0.000000E+00   0.000000E+00   0.000000E+00   0.000000E+00   0.000000E+00   0.000000E+00   0.000000E+00   0.000000E+00
   0.000000E+00   0.000000E+00   0.000000E+00   0.000000E+00   0.000000E+00   0.000000E+00   0.000000E+00   0.000000E+00   0.000000E+00   0.000000E+00   4.000000E-04   4.000000E-04   4.000000E-04   4.000000E-04   4.000000E-04   4.000000E-04   4.000000E-04   4.000000E-04   4.000000E-04   4.000000E-04   4.000000E-04   4.000000E-04   4.000000E-04   4.000000E-04   4.000000E-04   4.000000E-04   4.000000E-04   4.000000E-04   4.000000E-04   4.000000E-04   4.000000E-04   4.000000E-04   4.000000E-04   4.000000E-04   4.000000E-04   4.000000E-04   4.000000E-04   4.000000E-04   4.000000E-04   4.000000E-04   4.000000E-04   4.000000E-04   4.000000E-04   4.000000E-04   4.000000E-04   4.000000E-04   4.000000E-04   4.000000E-04   4.000000E-04   4.000000E-04   4.000000E-04   0.000000E+00   0.000000E+00   0.000000E+00   0.000000E+00   0.000000E+00   0.000000E+00   0.000000E+00   0.000000E+00   0.000000E+00   0.000000E+00
   0.000000E+00   0.000000E+00   0.000000E+00   0.000000E+00   0.000000E+00   0.000000E+00   0.000000E+00   0.000000E+00   0.000000E+00   0.000000E+00   4.000000E-04   4.000000E-04   4.000000E-04   4.000000E-04   4.000000E-04   4.000000E-04   4.000000E-04   4.000000E-04   4.000000E-04   4.000000E-04   4.000000E-04   4.000000E-04   4.000000E-04   4.000000E-04   4.000000E-04   4.000000E-04   4.000000E-04   4.000000E-04   4.000000E-04   4.000000E-04   4.000000E-04   4.000000E-04   4.000000E-04   4.000000E-04   4.000000E-04   4.000000E-04   4.000000E-04   4.000000E-04   4.000000E-04   4.000000E-04   4.000000E-04   4.000000E-04   4.000000E-04   4.000000E-04   4.000000E-04   4.000000E-04   4.000000E-04   4.000000E-04   4.000000E-04   4.000000E-04   4.000000E-04   0.000000E+00   0.000000E+00   0.000000E+00   0.000000E+00   0.000000E+00   0.000000E+00   0.000000E+00   0.000000E+00   0.000000E+00   0.000000E+00