# Output control package file for MODFLOW, generated by Flopy. Output control by words option
# Deprecated flopy OC class
HEAD PRINT FORMAT   0
HEAD SAVE UNIT    51
DRAWDOWN PRINT FORMAT   0
DRAWDOWN SAVE UNIT    52

PERIOD     1 STEP                                           200
  PRINT BUDGET
  SAVE HEAD

PERIOD     1 STEP                                           400
  PRINT BUDGET
  SAVE HEAD

PERIOD     1 STEP                                           600
  PRINT BUDGET
  SAVE HEAD

PERIOD     1 STEP                                           800
  PRINT BUDGET
  SAVE HEAD

PERIOD     1 STEP                                          1000
  PRINT BUDGET
  SAVE HEAD

PERIOD     2 STEP                                            60
  PRINT BUDGET
  SAVE HEAD

PERIOD     2 STEP                                           120
  PRINT BUDGET
  SAVE HEAD

PERIOD     3 STEP                                            60
  PRINT BUDGET
  SAVE HEAD

PERIOD     3 STEP                                           120
  PRINT BUDGET
  SAVE HEAD

PERIOD     3 STEP                                           180
  PRINT BUDGET
  SAVE HEAD

