# MODFLOW2000 Layer Property Flow (LPF) Package
         0  -1.000000e+030         0
  1
  0
  1.000000e+000
 0
 0
        00     1.000(10e12.4)                   -1     HYDRAULIC CONDUCTIVITY Layer   1
        00     1.000(10e12.4)                   -1     VERTICAL HYDRAULIC CONDUCTIVITY Layer   1
        00     1.000(10e12.4)                   -1     PRIMARY STORAGE Layer   1
        00     0.200(10e12.4)                   -1     Sy Layer   1
