# MODFLOW2000 Discretization File
 1  1  1  21  1  2
 0
         0    10.000(10E12.4)                    0     DELTA-X or C
         0    10.000(10E12.4)                    0     DELTA-Y or R
         0     5.000(10e12.4)                   -1     TOP of Model
         0    -5.000(10e12.4)                   -1     BOTTOM of Layer   1
  6.00000000E+2  1  1.000000  TR
  6.00000000E+2  1  1.000000  TR
  6.00000000E+2  1  1.000000  TR
  6.00000000E+2  1  1.000000  TR
  6.00000000E+2  1  1.000000  TR
  6.00000000E+2  1  1.000000  TR
  6.00000000E+2  1  1.000000  TR
  6.00000000E+2  1  1.000000  TR
  6.00000000E+2  1  1.000000  TR
  6.00000000E+2  1  1.000000  TR
  6.00000000E+2  1  1.000000  TR
  6.00000000E+2  1  1.000000  TR
  6.00000000E+2  1  1.000000  TR
  6.00000000E+2  1  1.000000  TR
  6.00000000E+2  1  1.000000  TR
  6.00000000E+2  1  1.000000  TR
  6.00000000E+2  1  1.000000  TR
  6.00000000E+2  1  1.000000  TR
  6.00000000E+2  1  1.000000  TR
  6.00000000E+2  1  1.000000  TR
  6.00000000E+2  1  1.000000  TR
