# MODFLOW2005 Basic Package
#MODFLOW Data Set Created by Groundwater Vistas
#   

CONSTANT        1   (FREE)                      -1     IBOUND Layer   1
9.9900e+02
OPEN/CLOSE ref/ihead.ref  1.00  (FREE)          -1     STARTING HEADS Layer   1
