# MODFLOW2005 Discretization File
# can run for a total of 350 stress periods
 2  6  6  350 4  2
 0 0
  CONSTANT   304.80 (10E12.4)                    0     DELTA-X or C
  CONSTANT   304.80 (10E12.4)                    0     DELTA-Y or R
  INTERNAL     1.00 (10e12.4)                   -1     TOP of Model
       1.530       1.724       1.824       1.524       1.424       1.224
       1.530       1.524       1.624       1.324       1.224       1.224
       1.530       1.624       1.424       1.224      0.3048       1.124
       1.530       1.524       1.424       1.324      0.3048       1.024
       1.530       1.624       1.524       1.424       0.924       0.824
       1.530       1.724       1.624       1.624       1.124       1.424
  CONSTANT     0.25 (10e12.4)                   -1     BOTTOM of Layer   1
  CONSTANT    -20.0 (10e12.4)                   -1     BOTTOM of Layer   2
1.00    6   1.00      TR  STRESS PERIOD 001
1.00    6   1.00      TR  STRESS PERIOD 002
1.00    6   1.00      TR  STRESS PERIOD 003
1.00    6   1.00      TR  STRESS PERIOD 004
1.00    6   1.00      TR  STRESS PERIOD 005
1.00    6   1.00      TR  STRESS PERIOD 006
1.00    6   1.00      TR  STRESS PERIOD 007
1.00    6   1.00      TR  STRESS PERIOD 008
1.00    6   1.00      TR  STRESS PERIOD 009
1.00    6   1.00      TR  STRESS PERIOD 010
1.00    6   1.00      TR  STRESS PERIOD 011
1.00    6   1.00      TR  STRESS PERIOD 012
1.00    6   1.00      TR  STRESS PERIOD 013
1.00    6   1.00      TR  STRESS PERIOD 014
1.00    6   1.00      TR  STRESS PERIOD 015
1.00    6   1.00      TR  STRESS PERIOD 016
1.00    6   1.00      TR  STRESS PERIOD 017
1.00    6   1.00      TR  STRESS PERIOD 018
1.00    6   1.00      TR  STRESS PERIOD 019
1.00    6   1.00      TR  STRESS PERIOD 020
1.00    6   1.00      TR  STRESS PERIOD 021
1.00    6   1.00      TR  STRESS PERIOD 022
1.00    6   1.00      TR  STRESS PERIOD 023
1.00    6   1.00      TR  STRESS PERIOD 024
1.00    6   1.00      TR  STRESS PERIOD 025
1.00    6   1.00      TR  STRESS PERIOD 026
1.00    6   1.00      TR  STRESS PERIOD 027
1.00    6   1.00      TR  STRESS PERIOD 028
1.00    6   1.00      TR  STRESS PERIOD 029
1.00    6   1.00      TR  STRESS PERIOD 030
1.00    6   1.00      TR  STRESS PERIOD 031
1.00    6   1.00      TR  STRESS PERIOD 032
1.00    6   1.00      TR  STRESS PERIOD 033
1.00    6   1.00      TR  STRESS PERIOD 034
1.00    6   1.00      TR  STRESS PERIOD 035
1.00    6   1.00      TR  STRESS PERIOD 036
1.00    6   1.00      TR  STRESS PERIOD 037
1.00    6   1.00      TR  STRESS PERIOD 038
1.00    6   1.00      TR  STRESS PERIOD 039
1.00    6   1.00      TR  STRESS PERIOD 040
1.00    6   1.00      TR  STRESS PERIOD 041
1.00    6   1.00      TR  STRESS PERIOD 042
1.00    6   1.00      TR  STRESS PERIOD 043
1.00    6   1.00      TR  STRESS PERIOD 044
1.00    6   1.00      TR  STRESS PERIOD 045
1.00    6   1.00      TR  STRESS PERIOD 046
1.00    6   1.00      TR  STRESS PERIOD 047
1.00    6   1.00      TR  STRESS PERIOD 048
1.00    6   1.00      TR  STRESS PERIOD 049
1.00    6   1.00      TR  STRESS PERIOD 050
1.00    6   1.00      TR  STRESS PERIOD 051
1.00    6   1.00      TR  STRESS PERIOD 052
1.00    6   1.00      TR  STRESS PERIOD 053
1.00    6   1.00      TR  STRESS PERIOD 054
1.00    6   1.00      TR  STRESS PERIOD 055
1.00    6   1.00      TR  STRESS PERIOD 056
1.00    6   1.00      TR  STRESS PERIOD 057
1.00    6   1.00      TR  STRESS PERIOD 058
1.00    6   1.00      TR  STRESS PERIOD 059
1.00    6   1.00      TR  STRESS PERIOD 060
1.00    6   1.00      TR  STRESS PERIOD 061
1.00    6   1.00      TR  STRESS PERIOD 062
1.00    6   1.00      TR  STRESS PERIOD 063
1.00    6   1.00      TR  STRESS PERIOD 064
1.00    6   1.00      TR  STRESS PERIOD 065
1.00    6   1.00      TR  STRESS PERIOD 066
1.00    6   1.00      TR  STRESS PERIOD 067
1.00    6   1.00      TR  STRESS PERIOD 068
1.00    6   1.00      TR  STRESS PERIOD 069
1.00    6   1.00      TR  STRESS PERIOD 070
1.00    6   1.00      TR  STRESS PERIOD 071
1.00    6   1.00      TR  STRESS PERIOD 072
1.00    6   1.00      TR  STRESS PERIOD 073
1.00    6   1.00      TR  STRESS PERIOD 074
1.00    6   1.00      TR  STRESS PERIOD 075
1.00    6   1.00      TR  STRESS PERIOD 076
1.00    6   1.00      TR  STRESS PERIOD 077
1.00    6   1.00      TR  STRESS PERIOD 078
1.00    6   1.00      TR  STRESS PERIOD 079
1.00    6   1.00      TR  STRESS PERIOD 080
1.00    6   1.00      TR  STRESS PERIOD 081
1.00    6   1.00      TR  STRESS PERIOD 082
1.00    6   1.00      TR  STRESS PERIOD 083
1.00    6   1.00      TR  STRESS PERIOD 084
1.00    6   1.00      TR  STRESS PERIOD 085
1.00    6   1.00      TR  STRESS PERIOD 086
1.00    6   1.00      TR  STRESS PERIOD 087
1.00    6   1.00      TR  STRESS PERIOD 088
1.00    6   1.00      TR  STRESS PERIOD 089
1.00    6   1.00      TR  STRESS PERIOD 090
1.00    6   1.00      TR  STRESS PERIOD 091
1.00    6   1.00      TR  STRESS PERIOD 092
1.00    6   1.00      TR  STRESS PERIOD 093
1.00    6   1.00      TR  STRESS PERIOD 094
1.00    6   1.00      TR  STRESS PERIOD 095
1.00    6   1.00      TR  STRESS PERIOD 096
1.00    6   1.00      TR  STRESS PERIOD 097
1.00    6   1.00      TR  STRESS PERIOD 098
1.00    6   1.00      TR  STRESS PERIOD 099
1.00    6   1.00      TR  STRESS PERIOD 100
1.00    6   1.00      TR  STRESS PERIOD 101
1.00    6   1.00      TR  STRESS PERIOD 102
1.00    6   1.00      TR  STRESS PERIOD 103
1.00    6   1.00      TR  STRESS PERIOD 104
1.00    6   1.00      TR  STRESS PERIOD 105
1.00    6   1.00      TR  STRESS PERIOD 106
1.00    6   1.00      TR  STRESS PERIOD 107
1.00    6   1.00      TR  STRESS PERIOD 108
1.00    6   1.00      TR  STRESS PERIOD 109
1.00    6   1.00      TR  STRESS PERIOD 110
1.00    6   1.00      TR  STRESS PERIOD 111
1.00    6   1.00      TR  STRESS PERIOD 112
1.00    6   1.00      TR  STRESS PERIOD 113
1.00    6   1.00      TR  STRESS PERIOD 114
1.00    6   1.00      TR  STRESS PERIOD 115
1.00    6   1.00      TR  STRESS PERIOD 116
1.00    6   1.00      TR  STRESS PERIOD 117
1.00    6   1.00      TR  STRESS PERIOD 118
1.00    6   1.00      TR  STRESS PERIOD 119
1.00    6   1.00      TR  STRESS PERIOD 120
1.00    6   1.00      TR  STRESS PERIOD 121
1.00    6   1.00      TR  STRESS PERIOD 122
1.00    6   1.00      TR  STRESS PERIOD 123
1.00    6   1.00      TR  STRESS PERIOD 124
1.00    6   1.00      TR  STRESS PERIOD 125
1.00    6   1.00      TR  STRESS PERIOD 126
1.00    6   1.00      TR  STRESS PERIOD 127
1.00    6   1.00      TR  STRESS PERIOD 128
1.00    6   1.00      TR  STRESS PERIOD 129
1.00    6   1.00      TR  STRESS PERIOD 130
1.00    6   1.00      TR  STRESS PERIOD 131
1.00    6   1.00      TR  STRESS PERIOD 132
1.00    6   1.00      TR  STRESS PERIOD 133
1.00    6   1.00      TR  STRESS PERIOD 134
1.00    6   1.00      TR  STRESS PERIOD 135
1.00    6   1.00      TR  STRESS PERIOD 136
1.00    6   1.00      TR  STRESS PERIOD 137
1.00    6   1.00      TR  STRESS PERIOD 138
1.00    6   1.00      TR  STRESS PERIOD 139
1.00    6   1.00      TR  STRESS PERIOD 140
1.00    6   1.00      TR  STRESS PERIOD 141
1.00    6   1.00      TR  STRESS PERIOD 142
1.00    6   1.00      TR  STRESS PERIOD 143
1.00    6   1.00      TR  STRESS PERIOD 144
1.00    6   1.00      TR  STRESS PERIOD 145
1.00    6   1.00      TR  STRESS PERIOD 146
1.00    6   1.00      TR  STRESS PERIOD 147
1.00    6   1.00      TR  STRESS PERIOD 148
1.00    6   1.00      TR  STRESS PERIOD 149
1.00    6   1.00      TR  STRESS PERIOD 150
1.00    6   1.00      TR  STRESS PERIOD 151
1.00    6   1.00      TR  STRESS PERIOD 152
1.00    6   1.00      TR  STRESS PERIOD 153
1.00    6   1.00      TR  STRESS PERIOD 154
1.00    6   1.00      TR  STRESS PERIOD 155
1.00    6   1.00      TR  STRESS PERIOD 156
1.00    6   1.00      TR  STRESS PERIOD 157
1.00    6   1.00      TR  STRESS PERIOD 158
1.00    6   1.00      TR  STRESS PERIOD 159
1.00    6   1.00      TR  STRESS PERIOD 160
1.00    6   1.00      TR  STRESS PERIOD 161
1.00    6   1.00      TR  STRESS PERIOD 162
1.00    6   1.00      TR  STRESS PERIOD 163
1.00    6   1.00      TR  STRESS PERIOD 164
1.00    6   1.00      TR  STRESS PERIOD 165
1.00    6   1.00      TR  STRESS PERIOD 166
1.00    6   1.00      TR  STRESS PERIOD 167
1.00    6   1.00      TR  STRESS PERIOD 168
1.00    6   1.00      TR  STRESS PERIOD 169
1.00    6   1.00      TR  STRESS PERIOD 170
1.00    6   1.00      TR  STRESS PERIOD 171
1.00    6   1.00      TR  STRESS PERIOD 172
1.00    6   1.00      TR  STRESS PERIOD 173
1.00    6   1.00      TR  STRESS PERIOD 174
1.00    6   1.00      TR  STRESS PERIOD 175
1.00    6   1.00      TR  STRESS PERIOD 176
1.00    6   1.00      TR  STRESS PERIOD 177
1.00    6   1.00      TR  STRESS PERIOD 178
1.00    6   1.00      TR  STRESS PERIOD 179
1.00    6   1.00      TR  STRESS PERIOD 180
1.00    6   1.00      TR  STRESS PERIOD 181
1.00    6   1.00      TR  STRESS PERIOD 182
1.00    6   1.00      TR  STRESS PERIOD 183
1.00    6   1.00      TR  STRESS PERIOD 184
1.00    6   1.00      TR  STRESS PERIOD 185
1.00    6   1.00      TR  STRESS PERIOD 186
1.00    6   1.00      TR  STRESS PERIOD 187
1.00    6   1.00      TR  STRESS PERIOD 188
1.00    6   1.00      TR  STRESS PERIOD 189
1.00    6   1.00      TR  STRESS PERIOD 190
1.00    6   1.00      TR  STRESS PERIOD 191
1.00    6   1.00      TR  STRESS PERIOD 192
1.00    6   1.00      TR  STRESS PERIOD 193
1.00    6   1.00      TR  STRESS PERIOD 194
1.00    6   1.00      TR  STRESS PERIOD 195
1.00    6   1.00      TR  STRESS PERIOD 196
1.00    6   1.00      TR  STRESS PERIOD 197
1.00    6   1.00      TR  STRESS PERIOD 198
1.00    6   1.00      TR  STRESS PERIOD 199
1.00    6   1.00      TR  STRESS PERIOD 200
1.00    6   1.00      TR  STRESS PERIOD 201
1.00    6   1.00      TR  STRESS PERIOD 202
1.00    6   1.00      TR  STRESS PERIOD 203
1.00    6   1.00      TR  STRESS PERIOD 204
1.00    6   1.00      TR  STRESS PERIOD 205
1.00    6   1.00      TR  STRESS PERIOD 206
1.00    6   1.00      TR  STRESS PERIOD 207
1.00    6   1.00      TR  STRESS PERIOD 208
1.00    6   1.00      TR  STRESS PERIOD 209
1.00    6   1.00      TR  STRESS PERIOD 210
1.00    6   1.00      TR  STRESS PERIOD 211
1.00    6   1.00      TR  STRESS PERIOD 212
1.00    6   1.00      TR  STRESS PERIOD 213
1.00    6   1.00      TR  STRESS PERIOD 214
1.00    6   1.00      TR  STRESS PERIOD 215
1.00    6   1.00      TR  STRESS PERIOD 216
1.00    6   1.00      TR  STRESS PERIOD 217
1.00    6   1.00      TR  STRESS PERIOD 218
1.00    6   1.00      TR  STRESS PERIOD 219
1.00    6   1.00      TR  STRESS PERIOD 220
1.00    6   1.00      TR  STRESS PERIOD 221
1.00    6   1.00      TR  STRESS PERIOD 222
1.00    6   1.00      TR  STRESS PERIOD 223
1.00    6   1.00      TR  STRESS PERIOD 224
1.00    6   1.00      TR  STRESS PERIOD 225
1.00    6   1.00      TR  STRESS PERIOD 226
1.00    6   1.00      TR  STRESS PERIOD 227
1.00    6   1.00      TR  STRESS PERIOD 228
1.00    6   1.00      TR  STRESS PERIOD 229
1.00    6   1.00      TR  STRESS PERIOD 230
1.00    6   1.00      TR  STRESS PERIOD 231
1.00    6   1.00      TR  STRESS PERIOD 232
1.00    6   1.00      TR  STRESS PERIOD 233
1.00    6   1.00      TR  STRESS PERIOD 234
1.00    6   1.00      TR  STRESS PERIOD 235
1.00    6   1.00      TR  STRESS PERIOD 236
1.00    6   1.00      TR  STRESS PERIOD 237
1.00    6   1.00      TR  STRESS PERIOD 238
1.00    6   1.00      TR  STRESS PERIOD 239
1.00    6   1.00      TR  STRESS PERIOD 240
1.00    6   1.00      TR  STRESS PERIOD 241
1.00    6   1.00      TR  STRESS PERIOD 242
1.00    6   1.00      TR  STRESS PERIOD 243
1.00    6   1.00      TR  STRESS PERIOD 244
1.00    6   1.00      TR  STRESS PERIOD 245
1.00    6   1.00      TR  STRESS PERIOD 246
1.00    6   1.00      TR  STRESS PERIOD 247
1.00    6   1.00      TR  STRESS PERIOD 248
1.00    6   1.00      TR  STRESS PERIOD 249
1.00    6   1.00      TR  STRESS PERIOD 250
1.00    6   1.00      TR  STRESS PERIOD 251
1.00    6   1.00      TR  STRESS PERIOD 252
1.00    6   1.00      TR  STRESS PERIOD 253
1.00    6   1.00      TR  STRESS PERIOD 254
1.00    6   1.00      TR  STRESS PERIOD 255
1.00    6   1.00      TR  STRESS PERIOD 256
1.00    6   1.00      TR  STRESS PERIOD 257
1.00    6   1.00      TR  STRESS PERIOD 258
1.00    6   1.00      TR  STRESS PERIOD 259
1.00    6   1.00      TR  STRESS PERIOD 260
1.00    6   1.00      TR  STRESS PERIOD 261
1.00    6   1.00      TR  STRESS PERIOD 262
1.00    6   1.00      TR  STRESS PERIOD 263
1.00    6   1.00      TR  STRESS PERIOD 264
1.00    6   1.00      TR  STRESS PERIOD 265
1.00    6   1.00      TR  STRESS PERIOD 266
1.00    6   1.00      TR  STRESS PERIOD 267
1.00    6   1.00      TR  STRESS PERIOD 268
1.00    6   1.00      TR  STRESS PERIOD 269
1.00    6   1.00      TR  STRESS PERIOD 270
1.00    6   1.00      TR  STRESS PERIOD 271
1.00    6   1.00      TR  STRESS PERIOD 272
1.00    6   1.00      TR  STRESS PERIOD 273
1.00    6   1.00      TR  STRESS PERIOD 274
1.00    6   1.00      TR  STRESS PERIOD 275
1.00    6   1.00      TR  STRESS PERIOD 276
1.00    6   1.00      TR  STRESS PERIOD 277
1.00    6   1.00      TR  STRESS PERIOD 278
1.00    6   1.00      TR  STRESS PERIOD 279
1.00    6   1.00      TR  STRESS PERIOD 280
1.00    6   1.00      TR  STRESS PERIOD 281
1.00    6   1.00      TR  STRESS PERIOD 282
1.00    6   1.00      TR  STRESS PERIOD 283
1.00    6   1.00      TR  STRESS PERIOD 284
1.00    6   1.00      TR  STRESS PERIOD 285
1.00    6   1.00      TR  STRESS PERIOD 286
1.00    6   1.00      TR  STRESS PERIOD 287
1.00    6   1.00      TR  STRESS PERIOD 288
1.00    6   1.00      TR  STRESS PERIOD 289
1.00    6   1.00      TR  STRESS PERIOD 290
1.00    6   1.00      TR  STRESS PERIOD 291
1.00    6   1.00      TR  STRESS PERIOD 292
1.00    6   1.00      TR  STRESS PERIOD 293
1.00    6   1.00      TR  STRESS PERIOD 294
1.00    6   1.00      TR  STRESS PERIOD 295
1.00    6   1.00      TR  STRESS PERIOD 296
1.00    6   1.00      TR  STRESS PERIOD 297
1.00    6   1.00      TR  STRESS PERIOD 298
1.00    6   1.00      TR  STRESS PERIOD 299
1.00    6   1.00      TR  STRESS PERIOD 300
1.00    6   1.00      TR  STRESS PERIOD 301
1.00    6   1.00      TR  STRESS PERIOD 302
1.00    6   1.00      TR  STRESS PERIOD 303
1.00    6   1.00      TR  STRESS PERIOD 304
1.00    6   1.00      TR  STRESS PERIOD 305
1.00    6   1.00      TR  STRESS PERIOD 306
1.00    6   1.00      TR  STRESS PERIOD 307
1.00    6   1.00      TR  STRESS PERIOD 308
1.00    6   1.00      TR  STRESS PERIOD 309
1.00    6   1.00      TR  STRESS PERIOD 310
1.00    6   1.00      TR  STRESS PERIOD 311
1.00    6   1.00      TR  STRESS PERIOD 312
1.00    6   1.00      TR  STRESS PERIOD 313
1.00    6   1.00      TR  STRESS PERIOD 314
1.00    6   1.00      TR  STRESS PERIOD 315
1.00    6   1.00      TR  STRESS PERIOD 316
1.00    6   1.00      TR  STRESS PERIOD 317
1.00    6   1.00      TR  STRESS PERIOD 318
1.00    6   1.00      TR  STRESS PERIOD 319
1.00    6   1.00      TR  STRESS PERIOD 320
1.00    6   1.00      TR  STRESS PERIOD 321
1.00    6   1.00      TR  STRESS PERIOD 322
1.00    6   1.00      TR  STRESS PERIOD 323
1.00    6   1.00      TR  STRESS PERIOD 324
1.00    6   1.00      TR  STRESS PERIOD 325
1.00    6   1.00      TR  STRESS PERIOD 326
1.00    6   1.00      TR  STRESS PERIOD 327
1.00    6   1.00      TR  STRESS PERIOD 328
1.00    6   1.00      TR  STRESS PERIOD 329
1.00    6   1.00      TR  STRESS PERIOD 330
1.00    6   1.00      TR  STRESS PERIOD 331
1.00    6   1.00      TR  STRESS PERIOD 332
1.00    6   1.00      TR  STRESS PERIOD 333
1.00    6   1.00      TR  STRESS PERIOD 334
1.00    6   1.00      TR  STRESS PERIOD 335
1.00    6   1.00      TR  STRESS PERIOD 336
1.00    6   1.00      TR  STRESS PERIOD 337
1.00    6   1.00      TR  STRESS PERIOD 338
1.00    6   1.00      TR  STRESS PERIOD 339
1.00    6   1.00      TR  STRESS PERIOD 340
1.00    6   1.00      TR  STRESS PERIOD 341
1.00    6   1.00      TR  STRESS PERIOD 342
1.00    6   1.00      TR  STRESS PERIOD 343
1.00    6   1.00      TR  STRESS PERIOD 344
1.00    6   1.00      TR  STRESS PERIOD 345
1.00    6   1.00      TR  STRESS PERIOD 346
1.00    6   1.00      TR  STRESS PERIOD 347
1.00    6   1.00      TR  STRESS PERIOD 348
1.00    6   1.00      TR  STRESS PERIOD 349
1.00    6   1.00      TR  STRESS PERIOD 350
1.00    6   1.00      TR  STRESS PERIOD 351
1.00    6   1.00      TR  STRESS PERIOD 352
1.00    6   1.00      TR  STRESS PERIOD 353
1.00    6   1.00      TR  STRESS PERIOD 354
1.00    6   1.00      TR  STRESS PERIOD 355
1.00    6   1.00      TR  STRESS PERIOD 356
1.00    6   1.00      TR  STRESS PERIOD 357
1.00    6   1.00      TR  STRESS PERIOD 358
1.00    6   1.00      TR  STRESS PERIOD 359
1.00    6   1.00      TR  STRESS PERIOD 360
1.00    6   1.00      TR  STRESS PERIOD 361
1.00    6   1.00      TR  STRESS PERIOD 362
1.00    6   1.00      TR  STRESS PERIOD 363
1.00    6   1.00      TR  STRESS PERIOD 364
1.00    6   1.00      TR  STRESS PERIOD 365
1.00    6   1.00      TR  STRESS PERIOD 366
1.00    6   1.00      TR  STRESS PERIOD 367
