# MODFLOW2005 UZF Input File 
#CONSTANT     0.15              1.000 (FREE)       1     #THTI after THTS
#NUZTOP IUZFOPT IRUNFLG IETFLG IUZCB1 IUZFCB2 [NTRAIL2 NSETS2] NUZGAG SURFDEP
      1       2       1      1     0        0       20     20       0    0.50
INTERNAL     1        (FREE)     -1                     #IUZFBND
0 1 1 1 1 1
0 1 1 1 1 1
0 1 1 1 0 1
0 1 1 1 0 1
0 1 1 1 1 1
0 1 1 1 1 1
INTERNAL     1        (FREE)     -1                     #IRUNBND
 000000 100007 100008 100014 100015 100015
 000000 100007 100008 100014 100015 100015
 000000 100011 100011 100014 000000 100016
 000000 100009 100010 100014 000000 100018
 000000 100009 100010 100017 100017 100018
 000000 100009 100010 100019 100019 100018
CONSTANT     3.500             1.000 (FREE)      -1     #EPS
CONSTANT     0.25              1.000 (FREE)       1     #THTS
CONSTANT     0.15              1.000 (FREE)       1     #THTI after THTS
1                                                       #NUZF1
CONSTANT 0.0
1                                                       #NUZF2
CONSTANT  2.6249E-03  1.000 (FREE)                1     #PET
1                                                       #NUZF3
CONSTANT 0.25 1.000  (FREE)                       1     #ET Ext Depth
1                                                       #NUZF4
CONSTANT 0.05 1.000 (FREE)                        1     #Ext Water Content	
1                                            #NUZF1 STRESS PERIOD 002
CONSTANT 0.0
-1                                           #NUZF2 STRESS PERIOD 002
-1                                           #NUZF3 STRESS PERIOD 002
-1                                           #NUZF4 STRESS PERIOD 002
1                                            #NUZF1 STRESS PERIOD 003
CONSTANT 0.0
-1                                           #NUZF2 STRESS PERIOD 003
-1                                           #NUZF3 STRESS PERIOD 003
-1                                           #NUZF4 STRESS PERIOD 003
1                                            #NUZF1 STRESS PERIOD 004
CONSTANT 0.0
-1                                           #NUZF2 STRESS PERIOD 004
-1                                           #NUZF3 STRESS PERIOD 004
-1                                           #NUZF4 STRESS PERIOD 004
1                                            #NUZF1 STRESS PERIOD 005
CONSTANT 0.0
-1                                           #NUZF2 STRESS PERIOD 005
-1                                           #NUZF3 STRESS PERIOD 005
-1                                           #NUZF4 STRESS PERIOD 005
1                                            #NUZF1 STRESS PERIOD 006
CONSTANT 0.0
-1                                           #NUZF2 STRESS PERIOD 006
-1                                           #NUZF3 STRESS PERIOD 006
-1                                           #NUZF4 STRESS PERIOD 006
1                                            #NUZF1 STRESS PERIOD 007
INTERNAL 1.0 (FREE)   -1 #STRESS PERIOD 007
   0.        0.000762  0.000762  0.000762  0.000762  0.000762 
   0.        0.000762  0.000762  0.000762  0.000762  0.000762 
   0.        0.000762  0.000762  0.000762  0.000762  0.000762 
   0.        0.000762  0.        0.        0.        0.       
   0.        0.000762  0.        0.        0.        0.       
   0.        0.000762  0.        0.        0.        0.        
-1                                           #NUZF2 STRESS PERIOD 007
-1                                           #NUZF3 STRESS PERIOD 007
-1                                           #NUZF4 STRESS PERIOD 007
1                                            #NUZF1 STRESS PERIOD 008
CONSTANT 0.0
-1                                           #NUZF2 STRESS PERIOD 008
-1                                           #NUZF3 STRESS PERIOD 008
-1                                           #NUZF4 STRESS PERIOD 008
1                                            #NUZF1 STRESS PERIOD 009
CONSTANT 0.0
-1                                           #NUZF2 STRESS PERIOD 009
-1                                           #NUZF3 STRESS PERIOD 009
-1                                           #NUZF4 STRESS PERIOD 009
1                                            #NUZF1 STRESS PERIOD 010
CONSTANT 0.0
-1                                           #NUZF2 STRESS PERIOD 010
-1                                           #NUZF3 STRESS PERIOD 010
-1                                           #NUZF4 STRESS PERIOD 010
1                                            #NUZF1 STRESS PERIOD 011
CONSTANT 0.0
-1                                           #NUZF2 STRESS PERIOD 011
-1                                           #NUZF3 STRESS PERIOD 011
-1                                           #NUZF4 STRESS PERIOD 011
1                                            #NUZF1 STRESS PERIOD 012
CONSTANT 0.0
-1                                           #NUZF2 STRESS PERIOD 012
-1                                           #NUZF3 STRESS PERIOD 012
-1                                           #NUZF4 STRESS PERIOD 012
1                                            #NUZF1 STRESS PERIOD 013
CONSTANT 0.0
-1                                           #NUZF2 STRESS PERIOD 013
-1                                           #NUZF3 STRESS PERIOD 013
-1                                           #NUZF4 STRESS PERIOD 013
1                                            #NUZF1 STRESS PERIOD 014
CONSTANT 0.0
-1                                           #NUZF2 STRESS PERIOD 014
-1                                           #NUZF3 STRESS PERIOD 014
-1                                           #NUZF4 STRESS PERIOD 014
1                                            #NUZF1 STRESS PERIOD 015
CONSTANT 0.0
-1                                           #NUZF2 STRESS PERIOD 015
-1                                           #NUZF3 STRESS PERIOD 015
-1                                           #NUZF4 STRESS PERIOD 015
1                                            #NUZF1 STRESS PERIOD 016
CONSTANT 0.0
-1                                           #NUZF2 STRESS PERIOD 016
-1                                           #NUZF3 STRESS PERIOD 016
-1                                           #NUZF4 STRESS PERIOD 016
1                                            #NUZF1 STRESS PERIOD 017
CONSTANT 0.0
-1                                           #NUZF2 STRESS PERIOD 017
-1                                           #NUZF3 STRESS PERIOD 017
-1                                           #NUZF4 STRESS PERIOD 017
1                                            #NUZF1 STRESS PERIOD 018
CONSTANT 0.0
-1                                           #NUZF2 STRESS PERIOD 018
-1                                           #NUZF3 STRESS PERIOD 018
-1                                           #NUZF4 STRESS PERIOD 018
1                                            #NUZF1 STRESS PERIOD 019
INTERNAL 1.0 (FREE)   -1 #STRESS PERIOD 019
   0.       0.0254   0.0254   0.0254   0.0254   0.0254  
   0.       0.0254   0.0254   0.0254   0.0254   0.0254  
   0.       0.0254   0.0254   0.0254   0.0254   0.0254  
   0.       0.0254   0.02261  0.02261  0.02261  0.02261 
   0.       0.0254   0.02261  0.02261  0.02261  0.02261 
   0.       0.0254   0.02261  0.02261  0.02261  0.02261  
-1                                           #NUZF2 STRESS PERIOD 019
-1                                           #NUZF3 STRESS PERIOD 019
-1                                           #NUZF4 STRESS PERIOD 019
1                                            #NUZF1 STRESS PERIOD 020
CONSTANT 0.0
-1                                           #NUZF2 STRESS PERIOD 020
-1                                           #NUZF3 STRESS PERIOD 020
-1                                           #NUZF4 STRESS PERIOD 020
1                                            #NUZF1 STRESS PERIOD 021
CONSTANT 0.0
-1                                           #NUZF2 STRESS PERIOD 021
-1                                           #NUZF3 STRESS PERIOD 021
-1                                           #NUZF4 STRESS PERIOD 021
1                                            #NUZF1 STRESS PERIOD 022
CONSTANT 0.0
-1                                           #NUZF2 STRESS PERIOD 022
-1                                           #NUZF3 STRESS PERIOD 022
-1                                           #NUZF4 STRESS PERIOD 022
1                                            #NUZF1 STRESS PERIOD 023
CONSTANT 0.0
-1                                           #NUZF2 STRESS PERIOD 023
-1                                           #NUZF3 STRESS PERIOD 023
-1                                           #NUZF4 STRESS PERIOD 023
1                                            #NUZF1 STRESS PERIOD 024
CONSTANT 0.0
-1                                           #NUZF2 STRESS PERIOD 024
-1                                           #NUZF3 STRESS PERIOD 024
-1                                           #NUZF4 STRESS PERIOD 024
1                                            #NUZF1 STRESS PERIOD 025
CONSTANT 0.0
-1                                           #NUZF2 STRESS PERIOD 025
-1                                           #NUZF3 STRESS PERIOD 025
-1                                           #NUZF4 STRESS PERIOD 025
1                                            #NUZF1 STRESS PERIOD 026
CONSTANT 0.0
-1                                           #NUZF2 STRESS PERIOD 026
-1                                           #NUZF3 STRESS PERIOD 026
-1                                           #NUZF4 STRESS PERIOD 026
1                                            #NUZF1 STRESS PERIOD 027
INTERNAL 1.0 (FREE)   -1 #STRESS PERIOD 027
   0.        0.003048  0.003048  0.003048  0.003048  0.003048 
   0.        0.003048  0.003048  0.003048  0.003048  0.003048 
   0.        0.003048  0.003048  0.003048  0.003048  0.003048 
   0.        0.003048  0.00254   0.00254   0.00254   0.00254  
   0.        0.003048  0.00254   0.00254   0.00254   0.00254  
   0.        0.003048  0.00254   0.00254   0.00254   0.00254   
-1                                           #NUZF2 STRESS PERIOD 027
-1                                           #NUZF3 STRESS PERIOD 027
-1                                           #NUZF4 STRESS PERIOD 027
1                                            #NUZF1 STRESS PERIOD 028
INTERNAL 1.0 (FREE)   -1 #STRESS PERIOD 028
   0.        0.002286  0.002286  0.002286  0.002286  0.002286 
   0.        0.002286  0.002286  0.002286  0.002286  0.002286 
   0.        0.002286  0.002286  0.002286  0.002286  0.002286 
   0.        0.002286  0.001016  0.001016  0.001016  0.001016 
   0.        0.002286  0.001016  0.001016  0.001016  0.001016 
   0.        0.002286  0.001016  0.001016  0.001016  0.001016  
-1                                           #NUZF2 STRESS PERIOD 028
-1                                           #NUZF3 STRESS PERIOD 028
-1                                           #NUZF4 STRESS PERIOD 028
1                                            #NUZF1 STRESS PERIOD 029
CONSTANT 0.0
-1                                           #NUZF2 STRESS PERIOD 029
-1                                           #NUZF3 STRESS PERIOD 029
-1                                           #NUZF4 STRESS PERIOD 029
1                                            #NUZF1 STRESS PERIOD 030
CONSTANT 0.0
-1                                           #NUZF2 STRESS PERIOD 030
-1                                           #NUZF3 STRESS PERIOD 030
-1                                           #NUZF4 STRESS PERIOD 030
1                                            #NUZF1 STRESS PERIOD 031
INTERNAL 1.0 (FREE)   -1 #STRESS PERIOD 031
   0.       0.01956  0.01956  0.01956  0.01956  0.01956 
   0.       0.01956  0.01956  0.01956  0.01956  0.01956 
   0.       0.01956  0.01956  0.01956  0.01956  0.01956 
   0.       0.01956  0.01651  0.01651  0.01651  0.01651 
   0.       0.01956  0.01651  0.01651  0.01651  0.01651 
   0.       0.01956  0.01651  0.01651  0.01651  0.01651  
-1                                           #NUZF2 STRESS PERIOD 031
-1                                           #NUZF3 STRESS PERIOD 031
-1                                           #NUZF4 STRESS PERIOD 031
1                                            #NUZF1 STRESS PERIOD 032
INTERNAL 1.0 (FREE)   -1 #STRESS PERIOD 032
   0.       0.03404  0.03404  0.03404  0.03404  0.03404 
   0.       0.03404  0.03404  0.03404  0.03404  0.03404 
   0.       0.03404  0.03404  0.03404  0.03404  0.03404 
   0.       0.03404  0.02819  0.02819  0.02819  0.02819 
   0.       0.03404  0.02819  0.02819  0.02819  0.02819 
   0.       0.03404  0.02819  0.02819  0.02819  0.02819  
-1                                           #NUZF2 STRESS PERIOD 032
-1                                           #NUZF3 STRESS PERIOD 032
-1                                           #NUZF4 STRESS PERIOD 032
1                                            #NUZF1 STRESS PERIOD 033
INTERNAL 1.0 (FREE)   -1 #STRESS PERIOD 033
   0.       0.00508  0.00508  0.00508  0.00508  0.00508 
   0.       0.00508  0.00508  0.00508  0.00508  0.00508 
   0.       0.00508  0.00508  0.00508  0.00508  0.00508 
   0.       0.00508  0.00127  0.00127  0.00127  0.00127 
   0.       0.00508  0.00127  0.00127  0.00127  0.00127 
   0.       0.00508  0.00127  0.00127  0.00127  0.00127  
-1                                           #NUZF2 STRESS PERIOD 033
-1                                           #NUZF3 STRESS PERIOD 033
-1                                           #NUZF4 STRESS PERIOD 033
1                                            #NUZF1 STRESS PERIOD 034
CONSTANT 0.0
-1                                           #NUZF2 STRESS PERIOD 034
-1                                           #NUZF3 STRESS PERIOD 034
-1                                           #NUZF4 STRESS PERIOD 034
1                                            #NUZF1 STRESS PERIOD 035
CONSTANT 0.0
-1                                           #NUZF2 STRESS PERIOD 035
-1                                           #NUZF3 STRESS PERIOD 035
-1                                           #NUZF4 STRESS PERIOD 035
1                                            #NUZF1 STRESS PERIOD 036
CONSTANT 0.0
-1                                           #NUZF2 STRESS PERIOD 036
-1                                           #NUZF3 STRESS PERIOD 036
-1                                           #NUZF4 STRESS PERIOD 036
1                                            #NUZF1 STRESS PERIOD 037
INTERNAL 1.0 (FREE)   -1 #STRESS PERIOD 037
   0.        0.001778  0.001778  0.001778  0.001778  0.001778 
   0.        0.001778  0.001778  0.001778  0.001778  0.001778 
   0.        0.001778  0.001778  0.001778  0.001778  0.001778 
   0.        0.001778  0.00127   0.00127   0.00127   0.00127  
   0.        0.001778  0.00127   0.00127   0.00127   0.00127  
   0.        0.001778  0.00127   0.00127   0.00127   0.00127   
-1                                           #NUZF2 STRESS PERIOD 037
-1                                           #NUZF3 STRESS PERIOD 037
-1                                           #NUZF4 STRESS PERIOD 037
1                                            #NUZF1 STRESS PERIOD 038
INTERNAL 1.0 (FREE)   -1 #STRESS PERIOD 038
   0.        0.        0.        0.        0.        0.       
   0.        0.        0.        0.        0.        0.       
   0.        0.        0.        0.        0.        0.       
   0.        0.        0.000508  0.000508  0.000508  0.000508 
   0.        0.        0.000508  0.000508  0.000508  0.000508 
   0.        0.        0.000508  0.000508  0.000508  0.000508  
-1                                           #NUZF2 STRESS PERIOD 038
-1                                           #NUZF3 STRESS PERIOD 038
-1                                           #NUZF4 STRESS PERIOD 038
1                                            #NUZF1 STRESS PERIOD 039
CONSTANT 0.0
-1                                           #NUZF2 STRESS PERIOD 039
-1                                           #NUZF3 STRESS PERIOD 039
-1                                           #NUZF4 STRESS PERIOD 039
1                                            #NUZF1 STRESS PERIOD 040
CONSTANT 0.0
-1                                           #NUZF2 STRESS PERIOD 040
-1                                           #NUZF3 STRESS PERIOD 040
-1                                           #NUZF4 STRESS PERIOD 040
1                                            #NUZF1 STRESS PERIOD 041
CONSTANT 0.0
-1                                           #NUZF2 STRESS PERIOD 041
-1                                           #NUZF3 STRESS PERIOD 041
-1                                           #NUZF4 STRESS PERIOD 041
1                                            #NUZF1 STRESS PERIOD 042
CONSTANT 0.0
-1                                           #NUZF2 STRESS PERIOD 042
-1                                           #NUZF3 STRESS PERIOD 042
-1                                           #NUZF4 STRESS PERIOD 042
1                                            #NUZF1 STRESS PERIOD 043
CONSTANT 0.0
-1                                           #NUZF2 STRESS PERIOD 043
-1                                           #NUZF3 STRESS PERIOD 043
-1                                           #NUZF4 STRESS PERIOD 043
1                                            #NUZF1 STRESS PERIOD 044
CONSTANT 0.0
-1                                           #NUZF2 STRESS PERIOD 044
-1                                           #NUZF3 STRESS PERIOD 044
-1                                           #NUZF4 STRESS PERIOD 044
1                                            #NUZF1 STRESS PERIOD 045
CONSTANT 0.0
-1                                           #NUZF2 STRESS PERIOD 045
-1                                           #NUZF3 STRESS PERIOD 045
-1                                           #NUZF4 STRESS PERIOD 045
1                                            #NUZF1 STRESS PERIOD 046
CONSTANT 0.0
-1                                           #NUZF2 STRESS PERIOD 046
-1                                           #NUZF3 STRESS PERIOD 046
-1                                           #NUZF4 STRESS PERIOD 046
1                                            #NUZF1 STRESS PERIOD 047
INTERNAL 1.0 (FREE)   -1 #STRESS PERIOD 047
   0.        0.00381   0.00381   0.00381   0.00381   0.00381  
   0.        0.00381   0.00381   0.00381   0.00381   0.00381  
   0.        0.00381   0.00381   0.00381   0.00381   0.00381  
   0.        0.00381   0.002032  0.002032  0.002032  0.002032 
   0.        0.00381   0.002032  0.002032  0.002032  0.002032 
   0.        0.00381   0.002032  0.002032  0.002032  0.002032  
-1                                           #NUZF2 STRESS PERIOD 047
-1                                           #NUZF3 STRESS PERIOD 047
-1                                           #NUZF4 STRESS PERIOD 047
1                                            #NUZF1 STRESS PERIOD 048
CONSTANT 0.0
-1                                           #NUZF2 STRESS PERIOD 048
-1                                           #NUZF3 STRESS PERIOD 048
-1                                           #NUZF4 STRESS PERIOD 048
1                                            #NUZF1 STRESS PERIOD 049
INTERNAL 1.0 (FREE)   -1 #STRESS PERIOD 049
   0.        0.000508  0.000508  0.000508  0.000508  0.000508 
   0.        0.000508  0.000508  0.000508  0.000508  0.000508 
   0.        0.000508  0.000508  0.000508  0.000508  0.000508 
   0.        0.000508  0.000508  0.000508  0.000508  0.000508 
   0.        0.000508  0.000508  0.000508  0.000508  0.000508 
   0.        0.000508  0.000508  0.000508  0.000508  0.000508  
-1                                           #NUZF2 STRESS PERIOD 049
-1                                           #NUZF3 STRESS PERIOD 049
-1                                           #NUZF4 STRESS PERIOD 049
1                                            #NUZF1 STRESS PERIOD 050
CONSTANT 0.0
-1                                           #NUZF2 STRESS PERIOD 050
-1                                           #NUZF3 STRESS PERIOD 050
-1                                           #NUZF4 STRESS PERIOD 050
1                                            #NUZF1 STRESS PERIOD 051
CONSTANT 0.0
-1                                           #NUZF2 STRESS PERIOD 051
-1                                           #NUZF3 STRESS PERIOD 051
-1                                           #NUZF4 STRESS PERIOD 051
1                                            #NUZF1 STRESS PERIOD 052
CONSTANT 0.0
-1                                           #NUZF2 STRESS PERIOD 052
-1                                           #NUZF3 STRESS PERIOD 052
-1                                           #NUZF4 STRESS PERIOD 052
1                                            #NUZF1 STRESS PERIOD 053
CONSTANT 0.0
-1                                           #NUZF2 STRESS PERIOD 053
-1                                           #NUZF3 STRESS PERIOD 053
-1                                           #NUZF4 STRESS PERIOD 053
1                                            #NUZF1 STRESS PERIOD 054
CONSTANT 0.0
-1                                           #NUZF2 STRESS PERIOD 054
-1                                           #NUZF3 STRESS PERIOD 054
-1                                           #NUZF4 STRESS PERIOD 054
1                                            #NUZF1 STRESS PERIOD 055
CONSTANT 0.0
-1                                           #NUZF2 STRESS PERIOD 055
-1                                           #NUZF3 STRESS PERIOD 055
-1                                           #NUZF4 STRESS PERIOD 055
1                                            #NUZF1 STRESS PERIOD 056
CONSTANT 0.0
-1                                           #NUZF2 STRESS PERIOD 056
-1                                           #NUZF3 STRESS PERIOD 056
-1                                           #NUZF4 STRESS PERIOD 056
1                                            #NUZF1 STRESS PERIOD 057
INTERNAL 1.0 (FREE)   -1 #STRESS PERIOD 057
   0.       0.04547  0.04547  0.04547  0.04547  0.04547 
   0.       0.04547  0.04547  0.04547  0.04547  0.04547 
   0.       0.04547  0.04547  0.04547  0.04547  0.04547 
   0.       0.04547  0.04115  0.04115  0.04115  0.04115 
   0.       0.04547  0.04115  0.04115  0.04115  0.04115 
   0.       0.04547  0.04115  0.04115  0.04115  0.04115  
-1                                           #NUZF2 STRESS PERIOD 057
-1                                           #NUZF3 STRESS PERIOD 057
-1                                           #NUZF4 STRESS PERIOD 057
1                                            #NUZF1 STRESS PERIOD 058
CONSTANT 0.0
-1                                           #NUZF2 STRESS PERIOD 058
-1                                           #NUZF3 STRESS PERIOD 058
-1                                           #NUZF4 STRESS PERIOD 058
1                                            #NUZF1 STRESS PERIOD 059
CONSTANT 0.0
-1                                           #NUZF2 STRESS PERIOD 059
-1                                           #NUZF3 STRESS PERIOD 059
-1                                           #NUZF4 STRESS PERIOD 059
1                                            #NUZF1 STRESS PERIOD 060
INTERNAL 1.0 (FREE)   -1 #STRESS PERIOD 060
   0.        0.000508  0.000508  0.000508  0.000508  0.000508 
   0.        0.000508  0.000508  0.000508  0.000508  0.000508 
   0.        0.000508  0.000508  0.000508  0.000508  0.000508 
   0.        0.000508  0.        0.        0.        0.       
   0.        0.000508  0.        0.        0.        0.       
   0.        0.000508  0.        0.        0.        0.        
-1                                           #NUZF2 STRESS PERIOD 060
-1                                           #NUZF3 STRESS PERIOD 060
-1                                           #NUZF4 STRESS PERIOD 060
1                                            #NUZF1 STRESS PERIOD 061
CONSTANT 0.0
-1                                           #NUZF2 STRESS PERIOD 061
-1                                           #NUZF3 STRESS PERIOD 061
-1                                           #NUZF4 STRESS PERIOD 061
1                                            #NUZF1 STRESS PERIOD 062
CONSTANT 0.0
-1                                           #NUZF2 STRESS PERIOD 062
-1                                           #NUZF3 STRESS PERIOD 062
-1                                           #NUZF4 STRESS PERIOD 062
1                                            #NUZF1 STRESS PERIOD 063
CONSTANT 0.0
-1                                           #NUZF2 STRESS PERIOD 063
-1                                           #NUZF3 STRESS PERIOD 063
-1                                           #NUZF4 STRESS PERIOD 063
1                                            #NUZF1 STRESS PERIOD 064
CONSTANT 0.0
-1                                           #NUZF2 STRESS PERIOD 064
-1                                           #NUZF3 STRESS PERIOD 064
-1                                           #NUZF4 STRESS PERIOD 064
1                                            #NUZF1 STRESS PERIOD 065
CONSTANT 0.0
-1                                           #NUZF2 STRESS PERIOD 065
-1                                           #NUZF3 STRESS PERIOD 065
-1                                           #NUZF4 STRESS PERIOD 065
1                                            #NUZF1 STRESS PERIOD 066
CONSTANT 0.0
-1                                           #NUZF2 STRESS PERIOD 066
-1                                           #NUZF3 STRESS PERIOD 066
-1                                           #NUZF4 STRESS PERIOD 066
1                                            #NUZF1 STRESS PERIOD 067
CONSTANT 0.0
-1                                           #NUZF2 STRESS PERIOD 067
-1                                           #NUZF3 STRESS PERIOD 067
-1                                           #NUZF4 STRESS PERIOD 067
1                                            #NUZF1 STRESS PERIOD 068
CONSTANT 0.0
-1                                           #NUZF2 STRESS PERIOD 068
-1                                           #NUZF3 STRESS PERIOD 068
-1                                           #NUZF4 STRESS PERIOD 068
1                                            #NUZF1 STRESS PERIOD 069
CONSTANT 0.0
-1                                           #NUZF2 STRESS PERIOD 069
-1                                           #NUZF3 STRESS PERIOD 069
-1                                           #NUZF4 STRESS PERIOD 069
1                                            #NUZF1 STRESS PERIOD 070
CONSTANT 0.0
-1                                           #NUZF2 STRESS PERIOD 070
-1                                           #NUZF3 STRESS PERIOD 070
-1                                           #NUZF4 STRESS PERIOD 070
1                                            #NUZF1 STRESS PERIOD 071
CONSTANT 0.0
-1                                           #NUZF2 STRESS PERIOD 071
-1                                           #NUZF3 STRESS PERIOD 071
-1                                           #NUZF4 STRESS PERIOD 071
1                                            #NUZF1 STRESS PERIOD 072
CONSTANT 0.0
-1                                           #NUZF2 STRESS PERIOD 072
-1                                           #NUZF3 STRESS PERIOD 072
-1                                           #NUZF4 STRESS PERIOD 072
1                                            #NUZF1 STRESS PERIOD 073
CONSTANT 0.0
-1                                           #NUZF2 STRESS PERIOD 073
-1                                           #NUZF3 STRESS PERIOD 073
-1                                           #NUZF4 STRESS PERIOD 073
1                                            #NUZF1 STRESS PERIOD 074
CONSTANT 0.0
-1                                           #NUZF2 STRESS PERIOD 074
-1                                           #NUZF3 STRESS PERIOD 074
-1                                           #NUZF4 STRESS PERIOD 074
1                                            #NUZF1 STRESS PERIOD 075
INTERNAL 1.0 (FREE)   -1 #STRESS PERIOD 075
   0.        0.002286  0.002286  0.002286  0.002286  0.002286 
   0.        0.002286  0.002286  0.002286  0.002286  0.002286 
   0.        0.002286  0.002286  0.002286  0.002286  0.002286 
   0.        0.002286  0.00127   0.00127   0.00127   0.00127  
   0.        0.002286  0.00127   0.00127   0.00127   0.00127  
   0.        0.002286  0.00127   0.00127   0.00127   0.00127   
-1                                           #NUZF2 STRESS PERIOD 075
-1                                           #NUZF3 STRESS PERIOD 075
-1                                           #NUZF4 STRESS PERIOD 075
1                                            #NUZF1 STRESS PERIOD 076
CONSTANT 0.0
-1                                           #NUZF2 STRESS PERIOD 076
-1                                           #NUZF3 STRESS PERIOD 076
-1                                           #NUZF4 STRESS PERIOD 076
1                                            #NUZF1 STRESS PERIOD 077
INTERNAL 1.0 (FREE)   -1 #STRESS PERIOD 077
   0.        0.004572  0.004572  0.004572  0.004572  0.004572 
   0.        0.004572  0.004572  0.004572  0.004572  0.004572 
   0.        0.004572  0.004572  0.004572  0.004572  0.004572 
   0.        0.004572  0.000254  0.000254  0.000254  0.000254 
   0.        0.004572  0.000254  0.000254  0.000254  0.000254 
   0.        0.004572  0.000254  0.000254  0.000254  0.000254  
-1                                           #NUZF2 STRESS PERIOD 077
-1                                           #NUZF3 STRESS PERIOD 077
-1                                           #NUZF4 STRESS PERIOD 077
1                                            #NUZF1 STRESS PERIOD 078
CONSTANT 0.0
-1                                           #NUZF2 STRESS PERIOD 078
-1                                           #NUZF3 STRESS PERIOD 078
-1                                           #NUZF4 STRESS PERIOD 078
1                                            #NUZF1 STRESS PERIOD 079