# MODFLOW2000 Layer Property Flow (LPF) Package
         0  -1.000000e+030         0
  1 1
  0 0
  1.000000e+000 1.000000e+000
 1 1
 1 1
 0.1 4 1
  INTERNAL    10.00 (FREE)                       0     HYDRAULIC CONDUCTIVITY Layer   1
 1.0  1.0  1.0  1.0  1.0  1.0
 1.0  0.5  0.5  1.0  1.0  1.0
 1.0  1.0  0.5  1.0  1.0  1.0
 1.0  0.5  0.5  1.0  1.0  1.0
 1.0  1.0  1.0  1.0  1.0  1.0
 1.0  1.0  1.0  1.0  1.0  1.0
         0    10.000(10e12.4)                    0     VERTICAL HYDRAULIC CONDUCTIVITY Layer   1
         0   1.0e-05(10e12.4)                    0     PRIMARY STORAGE Layer   1
         0     0.200(10e12.4)                    0     Sy Layer   1
         0     0.100(10e12.4)                    0     WETDRY Layer 1
         0     5.000(10e12.4)                    0     HYDRAULIC CONDUCTIVITY Layer   2
         0    10.000(10e12.4)                    0     VERTICAL HYDRAULIC CONDUCTIVITY Layer   2
         0   1.0e-05(10e12.4)                    0     PRIMARY STORAGE Layer   2
         0     0.200(10e12.4)                    0     Sy Layer   2
         0     0.100(10e12.4)                    0     WETDRY Layer 2
