# Discretization file for MODFLOW, generated by Flopy.
         2        61        61         3         4         2
  0  0
CONSTANT    5.000000E+01                           #delr                          
CONSTANT    5.000000E+01                           #delc                          
CONSTANT   -1.000000E+01                           #model_top                     
CONSTANT   -3.000000E+01                           #botm Layer 1                  
CONSTANT   -5.000000E+01                           #botm Layer 2                  
  73050.000000          1000  1.000000  SS 
   4383.000000           120  1.000000  SS 
   6574.500000           180  1.000000  SS 
