# Well file for MODFLOW, generated by Flopy.
         2         0
         2         0 # stress period 0
         1        31        36  0.000000
         2        31        36  0.000000
         2         0 # stress period 1
         1        31        36 -250.000000
         2        31        36  0.000000
        -1         0 # stress period 2
