                                  MODFLOW-2005     
      U.S. GEOLOGICAL SURVEY MODULAR FINITE-DIFFERENCE GROUND-WATER FLOW MODEL
                            VERSION 1.12.00 x/x/2015

 LIST FILE: werner2.list
                         UNIT    2

 OPENING werner2.dis
 FILE TYPE:DIS   UNIT   11   STATUS:OLD    
 FORMAT:FORMATTED              ACCESS:SEQUENTIAL          

 OPENING werner2.bas
 FILE TYPE:BAS6   UNIT   13   STATUS:OLD    
 FORMAT:FORMATTED              ACCESS:SEQUENTIAL          

 OPENING werner2.lpf
 FILE TYPE:LPF   UNIT   15   STATUS:OLD    
 FORMAT:FORMATTED              ACCESS:SEQUENTIAL          

 OPENING werner2.wel
 FILE TYPE:WEL   UNIT   20   STATUS:OLD    
 FORMAT:FORMATTED              ACCESS:SEQUENTIAL          

 OPENING werner2.swi2
 FILE TYPE:SWI2   UNIT   29   STATUS:OLD    
 FORMAT:FORMATTED              ACCESS:SEQUENTIAL          

 OPENING werner2.zta
 FILE TYPE:DATA(BINARY)   UNIT   55   STATUS:REPLACE
 FORMAT:UNFORMATTED            ACCESS:STREAM              

 OPENING werner2.zobs
 FILE TYPE:DATA   UNIT 1051   STATUS:REPLACE
 FORMAT:FORMATTED              ACCESS:SEQUENTIAL          

 OPENING werner2.oc
 FILE TYPE:OC   UNIT   14   STATUS:OLD    
 FORMAT:FORMATTED              ACCESS:SEQUENTIAL          

 OPENING werner2.hds
 FILE TYPE:DATA(BINARY)   UNIT   51   STATUS:REPLACE
 FORMAT:UNFORMATTED            ACCESS:STREAM              

 OPENING werner2.ddn
 FILE TYPE:DATA(BINARY)   UNIT   52   STATUS:REPLACE
 FORMAT:UNFORMATTED            ACCESS:STREAM              

 OPENING werner2.cbc
 FILE TYPE:DATA(BINARY)   UNIT   53   STATUS:REPLACE
 FORMAT:UNFORMATTED            ACCESS:STREAM              

 OPENING werner2.de4
 FILE TYPE:DE4   UNIT   28   STATUS:OLD    
 FORMAT:FORMATTED              ACCESS:SEQUENTIAL          

 BAS -- BASIC PACKAGE, VERSION 7, 5/2/2005 INPUT READ FROM UNIT   13

 MODFLOW was compiled using mixed precision
 Precision of REAL variables:           6
 Precision of DOUBLE PRECISION variables:          15

 DISCRETIZATION INPUT DATA READ FROM UNIT   11
 # Discretization file for MODFLOW, generated by Flopy.
    7 LAYERS         1 ROWS      1000 COLUMNS
    1 STRESS PERIOD(S) IN SIMULATION
 MODEL TIME UNIT IS DAYS
 MODEL LENGTH UNIT IS METERS
  Confining bed flag for each layer:
   0   0   0   0   0   0   0

                     DELR =  5.375000E-04

                     DELC =  5.300000E-02

 TOP ELEVATION OF LAYER 1 =   1.10000    

   MODEL LAYER BOTTOM EL. =  0.990000     FOR LAYER   1

   MODEL LAYER BOTTOM EL. =  0.880000     FOR LAYER   2

   MODEL LAYER BOTTOM EL. =  0.770000     FOR LAYER   3

   MODEL LAYER BOTTOM EL. =  0.660000     FOR LAYER   4

   MODEL LAYER BOTTOM EL. =  0.550000     FOR LAYER   5

   MODEL LAYER BOTTOM EL. =  0.150000     FOR LAYER   6

   MODEL LAYER BOTTOM EL. =   0.00000     FOR LAYER   7


 STRESS PERIOD     LENGTH       TIME STEPS     MULTIPLIER FOR DELT    SS FLAG
 ----------------------------------------------------------------------------
        1        0.2430560        200                    1.000         TR

 TRANSIENT SIMULATION




 # Basic package file for MODFLOW, generated by Flopy.                           
 THE FREE FORMAT OPTION HAS BEEN SELECTED



                     BOUNDARY ARRAY FOR LAYER   1
 READING ON UNIT   13 WITH FORMAT: (1000I10)           



                     BOUNDARY ARRAY FOR LAYER   2
 READING ON UNIT   13 WITH FORMAT: (1000I10)           



                     BOUNDARY ARRAY FOR LAYER   3
 READING ON UNIT   13 WITH FORMAT: (1000I10)           



                     BOUNDARY ARRAY FOR LAYER   4
 READING ON UNIT   13 WITH FORMAT: (1000I10)           



                     BOUNDARY ARRAY FOR LAYER   5
 READING ON UNIT   13 WITH FORMAT: (1000I10)           



                     BOUNDARY ARRAY FOR LAYER   6
 READING ON UNIT   13 WITH FORMAT: (1000I10)           



                     BOUNDARY ARRAY FOR LAYER   7
 READING ON UNIT   13 WITH FORMAT: (1000I10)           

 AQUIFER HEAD WILL BE SET TO  -999.99     AT ALL NO-FLOW NODES (IBOUND=0).

             INITIAL HEAD =   1.10000     FOR LAYER   1

             INITIAL HEAD =   1.10000     FOR LAYER   2

             INITIAL HEAD =   1.10000     FOR LAYER   3

             INITIAL HEAD =   1.10000     FOR LAYER   4

             INITIAL HEAD =   1.10000     FOR LAYER   5

             INITIAL HEAD =   1.10000     FOR LAYER   6

             INITIAL HEAD =   1.10000     FOR LAYER   7
 # Output control package file for MODFLOW, generated by Flopy.

 OUTPUT CONTROL IS SPECIFIED ONLY AT TIME STEPS FOR WHICH OUTPUT IS DESIRED
 COMPACT CELL-BY-CELL BUDGET FILES WILL BE WRITTEN
 AUXILIARY DATA WILL BE SAVED IN CELL-BY-CELL BUDGET FILES
 HEAD PRINT FORMAT CODE IS   0    DRAWDOWN PRINT FORMAT CODE IS   0
 HEADS WILL BE SAVED ON UNIT   51    DRAWDOWNS WILL BE SAVED ON UNIT   52

 LPF -- LAYER-PROPERTY FLOW PACKAGE, VERSION 7, 5/2/2005
         INPUT READ FROM UNIT   15
 # LPF for MODFLOW, generated by Flopy.
 CELL-BY-CELL FLOWS WILL BE SAVED ON UNIT   53
 HEAD AT CELLS THAT CONVERT TO DRY= -1.00000E+30
 No named parameters

   LAYER FLAGS:
 LAYER       LAYTYP        LAYAVG         CHANI        LAYVKA        LAYWET
 ---------------------------------------------------------------------------
    1             1             0     1.000E+00             0             0
    2             1             0     1.000E+00             0             0
    3             1             0     1.000E+00             0             0
    4             1             0     1.000E+00             0             0
    5             1             0     1.000E+00             0             0
    6             1             0     1.000E+00             0             0
    7             1             0     1.000E+00             0             0

   INTERPRETATION OF LAYER FLAGS:
                        INTERBLOCK     HORIZONTAL    DATA IN
         LAYER TYPE   TRANSMISSIVITY   ANISOTROPY   ARRAY VKA   WETTABILITY
 LAYER      (LAYTYP)      (LAYAVG)       (CHANI)      (LAYVKA)      (LAYWET)
 ---------------------------------------------------------------------------
    1   CONVERTIBLE      HARMONIC     1.000E+00    VERTICAL K  NON-WETTABLE
    2   CONVERTIBLE      HARMONIC     1.000E+00    VERTICAL K  NON-WETTABLE
    3   CONVERTIBLE      HARMONIC     1.000E+00    VERTICAL K  NON-WETTABLE
    4   CONVERTIBLE      HARMONIC     1.000E+00    VERTICAL K  NON-WETTABLE
    5   CONVERTIBLE      HARMONIC     1.000E+00    VERTICAL K  NON-WETTABLE
    6   CONVERTIBLE      HARMONIC     1.000E+00    VERTICAL K  NON-WETTABLE
    7   CONVERTIBLE      HARMONIC     1.000E+00    VERTICAL K  NON-WETTABLE

 WETTING CAPABILITY IS NOT ACTIVE IN ANY LAYER

    HYD. COND. ALONG ROWS =   140.000     FOR LAYER   1

      VERTICAL HYD. COND. =   140.000     FOR LAYER   1

         SPECIFIC STORAGE =  1.000000E-05 FOR LAYER   1

           SPECIFIC YIELD =  0.380000     FOR LAYER   1

    HYD. COND. ALONG ROWS =   140.000     FOR LAYER   2

      VERTICAL HYD. COND. =   140.000     FOR LAYER   2

         SPECIFIC STORAGE =  1.000000E-05 FOR LAYER   2

           SPECIFIC YIELD =  0.380000     FOR LAYER   2

    HYD. COND. ALONG ROWS =   140.000     FOR LAYER   3

      VERTICAL HYD. COND. =   140.000     FOR LAYER   3

         SPECIFIC STORAGE =  1.000000E-05 FOR LAYER   3

           SPECIFIC YIELD =  0.380000     FOR LAYER   3

    HYD. COND. ALONG ROWS =   140.000     FOR LAYER   4

      VERTICAL HYD. COND. =   140.000     FOR LAYER   4

         SPECIFIC STORAGE =  1.000000E-05 FOR LAYER   4

           SPECIFIC YIELD =  0.380000     FOR LAYER   4

    HYD. COND. ALONG ROWS =   140.000     FOR LAYER   5

      VERTICAL HYD. COND. =   140.000     FOR LAYER   5

         SPECIFIC STORAGE =  1.000000E-05 FOR LAYER   5

           SPECIFIC YIELD =  0.380000     FOR LAYER   5

    HYD. COND. ALONG ROWS =   140.000     FOR LAYER   6

      VERTICAL HYD. COND. =   140.000     FOR LAYER   6

         SPECIFIC STORAGE =  1.000000E-05 FOR LAYER   6

           SPECIFIC YIELD =  0.380000     FOR LAYER   6

    HYD. COND. ALONG ROWS =   140.000     FOR LAYER   7

      VERTICAL HYD. COND. =   140.000     FOR LAYER   7

         SPECIFIC STORAGE =  1.000000E-05 FOR LAYER   7

           SPECIFIC YIELD =  0.380000     FOR LAYER   7

 WEL -- WELL PACKAGE, VERSION 7, 5/2/2005 INPUT READ FROM UNIT   20
 # Well file for MODFLOW, generated by Flopy.
 No named parameters
 MAXIMUM OF      1 ACTIVE WELLS AT ONE TIME


     0 Well parameters

 DE4 -- D4 DIRECT SOLUTION PACKAGE, VERSION 7, 5/2/2005  INPUT READ FROM UNIT   28
 # DE4 for MODFLOW, generated by Flopy.
 MAXIMUM ITERATIONS (EXTERNAL OR INTERNAL) = 50
 MAXIMUM EQUATIONS IN UPPER PART OF [A]:   3500
 MAXIMUM EQUATIONS IN LOWER PART OF [A]:   3500
 MAXIMUM BAND WIDTH OF [AL] PLUS 1:    8

                     SOLUTION BY D4 DIRECT SOLVER WITH EXTERNAL ITERATION
                     ----------------------------------------------------

 MAXIMUM ITERATIONS = 50
 RELAXATION-ACCELERATION PARAMETER =  1.000000
 HEAD CHANGE CRITERION FOR CLOSURE =    0.10000E-04
 D4 PRINTOUT INTERVAL =   1
 NON-LINEAR PROBLEM -- [A] MATRIX ELIMINATED EVERY TIME EQUATIONS ARE REFORMULATED


 SWI2 -- SWI PACKAGE, VERSION 2.0.0, 07/22/2013
 --------------------------------------------------
 SWI2 INPUT READ FROM UNIT 29


 # Salt Water Intrusion (SWI2) package file for MODFLOW-2005, generated by Flopy.
 # Dataset 1


 SWI2 DATASET 1
 ----------------------------------------------------
 NUMBER OF SURFACES (NSRF):                         1
 TOTAL NUMBER OF ZONES:                             2
 DENSITY DISTRIBUTION OPTION (ISTRAT):              1
   VARIABLE DENSITY FLOW -- ISTRAT = 0
   STRATIFIED FLOW       -- ISTRAT = 1
 NUMBER OF SWI OBSERVATIONS (NOBS):                 4
 ZETA OUTPUT FILE UNIT NUMBER (ISWIZT):            55
 BUDGET OUTPUT FILE UNIT NUMBER (ISWICB):          53
 OBSERVATION OUTPUT FILE UNIT NUMBER (ISWIOBS):  1051
 ----------------------------------------------------
 # Dataset 2a


 SWI2 DATASET 2A
 ----------------------------------------------------
 SOLVER (NSOLVER):                                  1
   SOLVER =                      DIRECT SOLVER (DE4)
 SOLVER PRINTOUT INTERVAL (IPRSOL):               999
 SOLVER OUTPUT FLAG (MUTSOL):                       3
   0 = PRINTING EVERY ITERATION
   1 = LIMITED (TOTAL NUMBER OF ITERATIONS)
   2 = NO PRINTING
   3 = ONLY IF CONVERGENCE FAILS
 ----------------------------------------------------
 # Dataset 3a


 SWI2 DATASET 3A
 ----------------------------------------------------
 MAXIMUM TOE SURFACE SLOPE (TOESLOPE):      0.500E-02
 MAXIMUM TIP SURFACE SLOPE (TIPSLOPE):      0.500E-02
 EXCESS SURFACE SLOPE FRACTION (ALPHA):     0.100    
 MINIMUM ZONE THICKNESS FRACTION (BETA):    0.100    
 ----------------------------------------------------



                             NUZONE
 READING ON UNIT   29 WITH FORMAT: (2E15.6)            

         ZETA SURFACE  1  =  0.150000     FOR LAYER   1

         ZETA SURFACE  1  =  0.150000     FOR LAYER   2

         ZETA SURFACE  1  =  0.150000     FOR LAYER   3

         ZETA SURFACE  1  =  0.150000     FOR LAYER   4

         ZETA SURFACE  1  =  0.150000     FOR LAYER   5

         ZETA SURFACE  1  =  0.150000     FOR LAYER   6

         ZETA SURFACE  1  =  0.150000     FOR LAYER   7

                      SSZ =  0.380000     FOR LAYER   1

                      SSZ =  0.380000     FOR LAYER   2

                      SSZ =  0.380000     FOR LAYER   3

                      SSZ =  0.380000     FOR LAYER   4

                      SSZ =  0.380000     FOR LAYER   5

                      SSZ =  0.380000     FOR LAYER   6

                      SSZ =  0.380000     FOR LAYER   7



                            IZONENR FOR LAYER   1
 READING ON UNIT   29 WITH FORMAT: (1000I10)           



                            IZONENR FOR LAYER   2
 READING ON UNIT   29 WITH FORMAT: (1000I10)           



                            IZONENR FOR LAYER   3
 READING ON UNIT   29 WITH FORMAT: (1000I10)           



                            IZONENR FOR LAYER   4
 READING ON UNIT   29 WITH FORMAT: (1000I10)           



                            IZONENR FOR LAYER   5
 READING ON UNIT   29 WITH FORMAT: (1000I10)           



                            IZONENR FOR LAYER   6
 READING ON UNIT   29 WITH FORMAT: (1000I10)           



                            IZONENR FOR LAYER   7
 READING ON UNIT   29 WITH FORMAT: (1000I10)           
 # Dataset 8


                 SWI2 OBSERVATION LOCATIONS
  OBSERVATION      LAYER        ROW     COLUMN       OBSNAM
 ----------------------------------------------------------
            1          4          1       1000      layer4_
            2          5          1       1000      layer5_
            3          6          1       1000      layer6_
            4          7          1       1000      layer7_


              SWI2 INVALID OBSERVATION LOCATIONS
 -----------------------------------------------------------
         NONE
1
                            STRESS PERIOD NO.    1, LENGTH =  0.2430560    
                            -----------------------------------------------

                              NUMBER OF TIME STEPS =   200

                               MULTIPLIER FOR DELT =     1.000

                            INITIAL TIME STEP SIZE =  0.1215280E-02

 WELL NO.  LAYER   ROW   COL   STRESS RATE         
 --------------------------------------------------
      1      4      1   1000     -0.1642    

      1 WELL 

 SOLVING FOR HEAD 

    3496 UPPER PART EQS.      3497 LOWER PART EQS.    BAND WIDTH + 1 =    8

     3 EXTERNAL ITERATIONS FOR TIME STEP   1 IN STRESS PERIOD    1

 MAXIMUM HEAD CHANGE FOR EACH ITERATION:

     HEAD CHANGE  LAY,ROW,COL      HEAD CHANGE  LAY,ROW,COL  
 ------------------------------------------------------------
    -2.729E-02 (  4,    1, 1000)  -1.367E-04 (  5,    1,  999)
    -2.553E-06 (  6,    1,  999)



 OUTPUT CONTROL FOR STRESS PERIOD    1   TIME STEP    1
    PRINT BUDGET
    SAVE HEAD FOR ALL LAYERS
 UBUDSV SAVING "      ZETASRF  1" ON UNIT 55 AT TIME STEP  1, STRESS PERIOD    1


                      VOLUMETRIC SWI ZONE BUDGET FOR ENTIRE MODEL
                     AT END OF TIME STEP    1 IN STRESS PERIOD   1
                                      ZONE     1
  -----------------------------------------------------------------------------------

        CUMULATIVE VOLUMES      L**3       RATES FOR THIS TIME STEP      L**3/T
        ------------------                 ------------------------

              IN:                                      IN:
              ---                                      ---
             BOUNDARIES =       1.9513E-10            BOUNDARIES =       1.6056E-07
          CONSTANT HEAD =       1.4543E-04         CONSTANT HEAD =           0.1197
            ZONE CHANGE =       3.9438E-05           ZONE CHANGE =       3.2452E-02
       ZONE CHG TIP/TOE =       1.4634E-05      ZONE CHG TIP/TOE =       1.2041E-02
            ZONE MIXING =           0.0000           ZONE MIXING =           0.0000

               TOTAL IN =       1.9950E-04              TOTAL IN =           0.1642

             OUT:                                     OUT:
             ----                                     ----
             BOUNDARIES =       1.9950E-04            BOUNDARIES =           0.1642
          CONSTANT HEAD =           0.0000         CONSTANT HEAD =           0.0000
            ZONE CHANGE =           0.0000           ZONE CHANGE =           0.0000
       ZONE CHG TIP/TOE =           0.0000      ZONE CHG TIP/TOE =           0.0000
            ZONE MIXING =           0.0000           ZONE MIXING =           0.0000

              TOTAL OUT =       1.9950E-04             TOTAL OUT =           0.1642

               IN - OUT =      -7.2760E-10              IN - OUT =      -5.9605E-07

    PERCENT DISCREPANCY =          -0.00     PERCENT DISCREPANCY =          -0.00



                      VOLUMETRIC SWI ZONE BUDGET FOR ENTIRE MODEL
                     AT END OF TIME STEP    1 IN STRESS PERIOD   1
                                      ZONE     2
  -----------------------------------------------------------------------------------

        CUMULATIVE VOLUMES      L**3       RATES FOR THIS TIME STEP      L**3/T
        ------------------                 ------------------------

              IN:                                      IN:
              ---                                      ---
             BOUNDARIES =       8.0566E-16            BOUNDARIES =       6.6294E-13
          CONSTANT HEAD =       1.4633E-05         CONSTANT HEAD =       1.2041E-02
            ZONE CHANGE =       1.0371E-10           ZONE CHANGE =       8.5341E-08
       ZONE CHG TIP/TOE =           0.0000      ZONE CHG TIP/TOE =           0.0000
            ZONE MIXING =           0.0000           ZONE MIXING =           0.0000

               TOTAL IN =       1.4633E-05              TOTAL IN =       1.2041E-02

             OUT:                                     OUT:
             ----                                     ----
             BOUNDARIES =       8.3272E-16            BOUNDARIES =       6.8521E-13
          CONSTANT HEAD =           0.0000         CONSTANT HEAD =           0.0000
            ZONE CHANGE =           0.0000           ZONE CHANGE =           0.0000
       ZONE CHG TIP/TOE =       1.4634E-05      ZONE CHG TIP/TOE =       1.2041E-02
            ZONE MIXING =           0.0000           ZONE MIXING =           0.0000

              TOTAL OUT =       1.4634E-05             TOTAL OUT =       1.2041E-02

               IN - OUT =      -4.8203E-11              IN - OUT =      -3.9116E-08

    PERCENT DISCREPANCY =          -0.00     PERCENT DISCREPANCY =          -0.00


 HEAD WILL BE SAVED ON UNIT   51 AT END OF TIME STEP    1, STRESS PERIOD    1
1
  VOLUMETRIC BUDGET FOR ENTIRE MODEL AT END OF TIME STEP    1, STRESS PERIOD   1
  ------------------------------------------------------------------------------

     CUMULATIVE VOLUMES      L**3       RATES FOR THIS TIME STEP      L**3/T
     ------------------                 ------------------------

           IN:                                      IN:
           ---                                      ---
             STORAGE =       3.9438E-05               STORAGE =       3.2452E-02
       CONSTANT HEAD =       1.6006E-04         CONSTANT HEAD =           0.1317
               WELLS =           0.0000                 WELLS =           0.0000
          SWIADDTOCH =           0.0000            SWIADDTOCH =           0.0000

            TOTAL IN =       1.9950E-04              TOTAL IN =           0.1642

          OUT:                                     OUT:
          ----                                     ----
             STORAGE =           0.0000               STORAGE =           0.0000
       CONSTANT HEAD =           0.0000         CONSTANT HEAD =           0.0000
               WELLS =       1.9950E-04                 WELLS =           0.1642
          SWIADDTOCH =           0.0000            SWIADDTOCH =           0.0000

           TOTAL OUT =       1.9950E-04             TOTAL OUT =           0.1642

            IN - OUT =      -1.1496E-09              IN - OUT =      -9.3877E-07

 PERCENT DISCREPANCY =          -0.00     PERCENT DISCREPANCY =          -0.00






         TIME SUMMARY AT END OF TIME STEP    1 IN STRESS PERIOD    1
                    SECONDS     MINUTES      HOURS       DAYS        YEARS
                    -----------------------------------------------------------
   TIME STEP LENGTH  105.00      1.7500     2.91667E-02 1.21528E-03 3.32726E-06
 STRESS PERIOD TIME  105.00      1.7500     2.91667E-02 1.21528E-03 3.32726E-06
         TOTAL TIME  105.00      1.7500     2.91667E-02 1.21528E-03 3.32726E-06
1

 SOLVING FOR HEAD 
     3 EXTERNAL ITERATIONS FOR TIME STEP   2 IN STRESS PERIOD    1

 MAXIMUM HEAD CHANGE FOR EACH ITERATION:

     HEAD CHANGE  LAY,ROW,COL      HEAD CHANGE  LAY,ROW,COL  
 ------------------------------------------------------------
    -2.366E-03 (  1,    1, 1000)  -3.866E-05 (  1,    1, 1000)
    -4.457E-07 (  1,    1, 1000)



 OUTPUT CONTROL FOR STRESS PERIOD    1   TIME STEP    2
    PRINT BUDGET
    SAVE HEAD FOR ALL LAYERS
 SOLVING FOR ZETA FOR LAYER     6 ZONE     2

     499 UPPER PART EQS.       500 LOWER PART EQS.    BAND WIDTH + 1 =    2
 STRESS PERIOD=  1 TIMESTEP=  2 LAYER=  6 ZONE=  2 ACTIVE CELLS=  999 NUMBER OF EQUATIONS=     999
 UBUDSV SAVING "      ZETASRF  1" ON UNIT 55 AT TIME STEP  2, STRESS PERIOD    1


                      VOLUMETRIC SWI ZONE BUDGET FOR ENTIRE MODEL
                     AT END OF TIME STEP    2 IN STRESS PERIOD   1
                                      ZONE     1
  -----------------------------------------------------------------------------------

        CUMULATIVE VOLUMES      L**3       RATES FOR THIS TIME STEP      L**3/T
        ------------------                 ------------------------

              IN:                                      IN:
              ---                                      ---
             BOUNDARIES =       3.9059E-10            BOUNDARIES =       1.6084E-07
          CONSTANT HEAD =       3.1351E-04         CONSTANT HEAD =           0.1383
            ZONE CHANGE =       7.0860E-05           ZONE CHANGE =       2.5856E-02
       ZONE CHG TIP/TOE =       1.4634E-05      ZONE CHG TIP/TOE =       7.8724E-07
            ZONE MIXING =           0.0000           ZONE MIXING =           0.0000

               TOTAL IN =       3.9900E-04              TOTAL IN =           0.1642

             OUT:                                     OUT:
             ----                                     ----
             BOUNDARIES =       3.9900E-04            BOUNDARIES =           0.1642
          CONSTANT HEAD =           0.0000         CONSTANT HEAD =           0.0000
            ZONE CHANGE =       1.8307E-09           ZONE CHANGE =       1.5064E-06
       ZONE CHG TIP/TOE =           0.0000      ZONE CHG TIP/TOE =           0.0000
            ZONE MIXING =           0.0000           ZONE MIXING =           0.0000

              TOTAL OUT =       3.9900E-04             TOTAL OUT =           0.1642

               IN - OUT =       3.4925E-10              IN - OUT =       9.2387E-07

    PERCENT DISCREPANCY =           0.00     PERCENT DISCREPANCY =           0.00



                      VOLUMETRIC SWI ZONE BUDGET FOR ENTIRE MODEL
                     AT END OF TIME STEP    2 IN STRESS PERIOD   1
                                      ZONE     2
  -----------------------------------------------------------------------------------

        CUMULATIVE VOLUMES      L**3       RATES FOR THIS TIME STEP      L**3/T
        ------------------                 ------------------------

              IN:                                      IN:
              ---                                      ---
             BOUNDARIES =       1.5993E-15            BOUNDARIES =       6.5303E-13
          CONSTANT HEAD =       3.0106E-05         CONSTANT HEAD =       1.2732E-02
            ZONE CHANGE =       9.8337E-10           ZONE CHANGE =       7.2383E-07
       ZONE CHG TIP/TOE =           0.0000      ZONE CHG TIP/TOE =           0.0000
            ZONE MIXING =           0.0000           ZONE MIXING =           0.0000

               TOTAL IN =       3.0107E-05              TOTAL IN =       1.2733E-02

             OUT:                                     OUT:
             ----                                     ----
             BOUNDARIES =       1.5971E-15            BOUNDARIES =       6.2900E-13
          CONSTANT HEAD =           0.0000         CONSTANT HEAD =           0.0000
            ZONE CHANGE =       1.5475E-05           ZONE CHANGE =       1.2733E-02
       ZONE CHG TIP/TOE =       1.4634E-05      ZONE CHG TIP/TOE =           0.0000
            ZONE MIXING =           0.0000           ZONE MIXING =           0.0000

              TOTAL OUT =       3.0108E-05             TOTAL OUT =       1.2733E-02

               IN - OUT =      -8.8949E-10              IN - OUT =      -6.9290E-07

    PERCENT DISCREPANCY =          -0.00     PERCENT DISCREPANCY =          -0.01


 HEAD WILL BE SAVED ON UNIT   51 AT END OF TIME STEP    2, STRESS PERIOD    1
1
  VOLUMETRIC BUDGET FOR ENTIRE MODEL AT END OF TIME STEP    2, STRESS PERIOD   1
  ------------------------------------------------------------------------------

     CUMULATIVE VOLUMES      L**3       RATES FOR THIS TIME STEP      L**3/T
     ------------------                 ------------------------

           IN:                                      IN:
           ---                                      ---
             STORAGE =       5.5385E-05               STORAGE =       1.3122E-02
       CONSTANT HEAD =       3.4361E-04         CONSTANT HEAD =           0.1510
               WELLS =           0.0000                 WELLS =           0.0000
          SWIADDTOCH =           0.0000            SWIADDTOCH =           0.0000

            TOTAL IN =       3.9900E-04              TOTAL IN =           0.1642

          OUT:                                     OUT:
          ----                                     ----
             STORAGE =           0.0000               STORAGE =           0.0000
       CONSTANT HEAD =           0.0000         CONSTANT HEAD =           0.0000
               WELLS =       3.9900E-04                 WELLS =           0.1642
          SWIADDTOCH =           0.0000            SWIADDTOCH =           0.0000

           TOTAL OUT =       3.9900E-04             TOTAL OUT =           0.1642

            IN - OUT =      -1.2515E-09              IN - OUT =      -7.4506E-08

 PERCENT DISCREPANCY =          -0.00     PERCENT DISCREPANCY =          -0.00






         TIME SUMMARY AT END OF TIME STEP    2 IN STRESS PERIOD    1
                    SECONDS     MINUTES      HOURS       DAYS        YEARS
                    -----------------------------------------------------------
   TIME STEP LENGTH  105.00      1.7500     2.91667E-02 1.21528E-03 3.32726E-06
 STRESS PERIOD TIME  210.00      3.5000     5.83334E-02 2.43056E-03 6.65451E-06
         TOTAL TIME  210.00      3.5000     5.83334E-02 2.43056E-03 6.65451E-06
1

 SOLVING FOR HEAD 
     3 EXTERNAL ITERATIONS FOR TIME STEP   3 IN STRESS PERIOD    1

 MAXIMUM HEAD CHANGE FOR EACH ITERATION:

     HEAD CHANGE  LAY,ROW,COL      HEAD CHANGE  LAY,ROW,COL  
 ------------------------------------------------------------
    -9.379E-04 (  1,    1, 1000)  -1.658E-05 (  1,    1, 1000)
    -1.822E-07 (  1,    1, 1000)



 OUTPUT CONTROL FOR STRESS PERIOD    1   TIME STEP    3
    PRINT BUDGET
    SAVE HEAD FOR ALL LAYERS
 SOLVING FOR ZETA FOR LAYER     6 ZONE     2

     497 UPPER PART EQS.       497 LOWER PART EQS.    BAND WIDTH + 1 =    2
 STRESS PERIOD=  1 TIMESTEP=  3 LAYER=  6 ZONE=  2 ACTIVE CELLS=  994 NUMBER OF EQUATIONS=     994
 UBUDSV SAVING "      ZETASRF  1" ON UNIT 55 AT TIME STEP  3, STRESS PERIOD    1


                      VOLUMETRIC SWI ZONE BUDGET FOR ENTIRE MODEL
                     AT END OF TIME STEP    3 IN STRESS PERIOD   1
                                      ZONE     1
  -----------------------------------------------------------------------------------

        CUMULATIVE VOLUMES      L**3       RATES FOR THIS TIME STEP      L**3/T
        ------------------                 ------------------------

              IN:                                      IN:
              ---                                      ---
             BOUNDARIES =       6.0105E-10            BOUNDARIES =       1.7318E-07
          CONSTANT HEAD =       4.9086E-04         CONSTANT HEAD =           0.1459
            ZONE CHANGE =       9.3013E-05           ZONE CHANGE =       1.8228E-02
       ZONE CHG TIP/TOE =       1.4636E-05      ZONE CHG TIP/TOE =       1.5872E-06
            ZONE MIXING =           0.0000           ZONE MIXING =           0.0000

               TOTAL IN =       5.9851E-04              TOTAL IN =           0.1642

             OUT:                                     OUT:
             ----                                     ----
             BOUNDARIES =       5.9850E-04            BOUNDARIES =           0.1642
          CONSTANT HEAD =           0.0000         CONSTANT HEAD =           0.0000
            ZONE CHANGE =       6.0457E-09           ZONE CHANGE =       3.4683E-06
       ZONE CHG TIP/TOE =           0.0000      ZONE CHG TIP/TOE =           0.0000
            ZONE MIXING =           0.0000           ZONE MIXING =           0.0000

              TOTAL OUT =       5.9851E-04             TOTAL OUT =           0.1642

               IN - OUT =       2.0373E-09              IN - OUT =       1.4156E-06

    PERCENT DISCREPANCY =           0.00     PERCENT DISCREPANCY =           0.00



                      VOLUMETRIC SWI ZONE BUDGET FOR ENTIRE MODEL
                     AT END OF TIME STEP    3 IN STRESS PERIOD   1
                                      ZONE     2
  -----------------------------------------------------------------------------------

        CUMULATIVE VOLUMES      L**3       RATES FOR THIS TIME STEP      L**3/T
        ------------------                 ------------------------

              IN:                                      IN:
              ---                                      ---
             BOUNDARIES =       2.4594E-15            BOUNDARIES =       7.0778E-13
          CONSTANT HEAD =       4.5839E-05         CONSTANT HEAD =       1.2946E-02
            ZONE CHANGE =       3.7638E-09           ZONE CHANGE =       2.2879E-06
       ZONE CHG TIP/TOE =           0.0000      ZONE CHG TIP/TOE =           0.0000
            ZONE MIXING =           0.0000           ZONE MIXING =           0.0000
