# GHB for MODFLOW, generated by Flopy.
        10         0
        10         0 # stress period 0
         1         1         1  1.100000 3473.191406
         2         1         1  1.100000 3473.191406
         3         1         1  1.100000 3473.191406
         4         1         1  1.100000 3473.191406
         5         1         1  1.100000 2020.765991
         6         1         1  1.100000 2020.765991
         7         1         1  1.100000 2020.765991
         8         1         1  1.100000 2020.765991
         9         1         1  1.100000 2020.765991
        10         1         1  1.100000 3788.936279
