# LPF for MODFLOW, generated by Flopy.
        53    -1E+30         0  
         1         1         1         1         1         1         1
         0         0         0         0         0         0         0
   1.000000E+00   1.000000E+00   1.000000E+00   1.000000E+00   1.000000E+00   1.000000E+00   1.000000E+00
         0         0         0         0         0         0         0
         0         0         0         0         0         0         0
CONSTANT    1.400000E+02                           #hk layer 1                    
CONSTANT    1.400000E+02                           #vka layer 1                   
CONSTANT    1.000000E-05                           #ss layer 1                    
CONSTANT    3.800000E-01                           #sy layer 1                    
CONSTANT    1.400000E+02                           #hk layer 2                    
CONSTANT    1.400000E+02                           #vka layer 2                   
CONSTANT    1.000000E-05                           #ss layer 2                    
CONSTANT    3.800000E-01                           #sy layer 2                    
CONSTANT    1.400000E+02                           #hk layer 3                    
CONSTANT    1.400000E+02                           #vka layer 3                   
CONSTANT    1.000000E-05                           #ss layer 3                    
CONSTANT    3.800000E-01                           #sy layer 3                    
CONSTANT    1.400000E+02                           #hk layer 4                    
CONSTANT    1.400000E+02                           #vka layer 4                   
CONSTANT    1.000000E-05                           #ss layer 4                    
CONSTANT    3.800000E-01                           #sy layer 4                    
CONSTANT    1.400000E+02                           #hk layer 5                    
CONSTANT    1.400000E+02                           #vka layer 5                   
CONSTANT    1.000000E-05                           #ss layer 5                    
CONSTANT    3.800000E-01                           #sy layer 5                    
CONSTANT    1.400000E+02                           #hk layer 6                    
CONSTANT    1.400000E+02                           #vka layer 6                   
CONSTANT    1.000000E-05                           #ss layer 6                    
CONSTANT    3.800000E-01                           #sy layer 6                    
CONSTANT    1.400000E+02                           #hk layer 7                    
CONSTANT    1.400000E+02                           #vka layer 7                   
CONSTANT    1.000000E-05                           #ss layer 7                    
CONSTANT    3.800000E-01                           #sy layer 7                    
