# Discretization file for MODFLOW, generated by Flopy.
         7         1      1000         1         4         2
  0  0  0  0  0  0  0
CONSTANT    5.375000E-04                           #delr                          
CONSTANT    5.300000E-02                           #delc                          
CONSTANT    1.100000E+00                           #model_top                     
CONSTANT    9.900000E-01                           #botm layer 1                  
CONSTANT    8.800000E-01                           #botm layer 2                  
CONSTANT    7.700000E-01                           #botm layer 3                  
CONSTANT    6.600000E-01                           #botm layer 4                  
CONSTANT    5.500000E-01                           #botm layer 5                  
CONSTANT    1.500000E-01                           #botm layer 6                  
CONSTANT    0.000000E+00                           #botm layer 7                  
      0.243056           200  1.000000  TR 
