# Name file for MODFLOW-2005, generated by Flopy.
#xul:0, yul:1, rotation:0, proj4_str:EPSG:4326 ,start_datetime:1-1-1970
LIST           2 werner2.list
DIS           11 werner2.dis 
BAS6          13 werner2.bas 
LPF           15 werner2.lpf 
WEL           20 werner2.wel 
SWI2          29 werner2.swi2 
DATA(BINARY)  55 werner2.zta REPLACE
DATA         1051 werner2.zobs REPLACE
OC            14 werner2.oc 
DATA(BINARY)  51 werner2.hds REPLACE
DATA(BINARY)  52 werner2.ddn REPLACE
DATA(BINARY)  53 werner2.cbc REPLACE
de4           28 werner2.de4 
