# DE4 for MODFLOW, generated by Flopy.
50 0 0 0 
3 0 1.0 1e-05 1 
