# Output control package file for MODFLOW, generated by Flopy.
HEAD PRINT FORMAT   0
HEAD SAVE UNIT    51
DRAWDOWN PRINT FORMAT   0
DRAWDOWN SAVE UNIT    52
COMPACT BUDGET AUX

period 1 step 1 
print budget
save head

period 1 step 2 
print budget
save head

period 1 step 3 
print budget
save head

period 1 step 4 
print budget
save head

period 1 step 5 
print budget
save head

period 1 step 6 
print budget
save head

period 1 step 7 
print budget
save head

period 1 step 8 
print budget
save head

period 1 step 9 
print budget
save head

period 1 step 10 
print budget
save head

period 1 step 11 
print budget
save head

period 1 step 12 
print budget
save head

period 1 step 13 
print budget
save head

period 1 step 14 
print budget
save head

period 1 step 15 
print budget
save head

period 1 step 16 
print budget
save head

period 1 step 17 
print budget
save head

period 1 step 18 
print budget
save head

period 1 step 19 
print budget
save head

period 1 step 20 
print budget
save head

period 1 step 21 
print budget
save head

period 1 step 22 
print budget
save head

period 1 step 23 
print budget
save head

period 1 step 24 
print budget
save head

period 1 step 25 
print budget
save head

period 1 step 26 
print budget
save head

period 1 step 27 
print budget
save head

period 1 step 28 
print budget
save head

period 1 step 29 
print budget
save head

period 1 step 30 
print budget
save head

period 1 step 31 
print budget
save head

period 1 step 32 
print budget
save head

period 1 step 33 
print budget
save head

period 1 step 34 
print budget
save head

period 1 step 35 
print budget
save head

period 1 step 36 
print budget
save head

period 1 step 37 
print budget
save head

period 1 step 38 
print budget
save head

period 1 step 39 
print budget
save head

period 1 step 40 
print budget
save head

period 1 step 41 
print budget
save head

period 1 step 42 
print budget
save head

period 1 step 43 
print budget
save head

period 1 step 44 
print budget
save head

period 1 step 45 
print budget
save head

period 1 step 46 
print budget
save head

period 1 step 47 
print budget
save head

period 1 step 48 
print budget
save head

period 1 step 49 
print budget
save head

period 1 step 50 
print budget
save head

period 1 step 51 
print budget
save head

period 1 step 52 
print budget
save head

period 1 step 53 
print budget
save head

period 1 step 54 
print budget
save head

period 1 step 55 
print budget
save head

period 1 step 56 
print budget
save head

period 1 step 57 
print budget
save head

period 1 step 58 
print budget
save head

period 1 step 59 
print budget
save head

period 1 step 60 
print budget
save head

period 1 step 61 
print budget
save head

period 1 step 62 
print budget
save head

period 1 step 63 
print budget
save head

period 1 step 64 
print budget
save head

period 1 step 65 
print budget
save head

period 1 step 66 
print budget
save head

period 1 step 67 
print budget
save head

period 1 step 68 
print budget
save head

period 1 step 69 
print budget
save head

period 1 step 70 
print budget
save head

period 1 step 71 
print budget
save head

period 1 step 72 
print budget
save head

period 1 step 73 
print budget
save head

period 1 step 74 
print budget
save head

period 1 step 75 
print budget
save head

period 1 step 76 
print budget
save head

period 1 step 77 
print budget
save head

period 1 step 78 
print budget
save head

period 1 step 79 
print budget
save head

period 1 step 80 
print budget
save head

period 1 step 81 
print budget
save head

period 1 step 82 
print budget
save head

period 1 step 83 
print budget
save head

period 1 step 84 
print budget
save head

period 1 step 85 
print budget
save head

period 1 step 86 
print budget
save head

period 1 step 87 
print budget
save head

period 1 step 88 
print budget
save head

period 1 step 89 
print budget
save head

period 1 step 90 
print budget
save head

period 1 step 91 
print budget
save head

period 1 step 92 
print budget
save head

period 1 step 93 
print budget
save head

period 1 step 94 
print budget
save head

period 1 step 95 
print budget
save head

period 1 step 96 
print budget
save head

period 1 step 97 
print budget
save head

period 1 step 98 
print budget
save head

period 1 step 99 
print budget
save head

period 1 step 100 
print budget
save head

period 1 step 101 
print budget
save head

period 1 step 102 
print budget
save head

period 1 step 103 
print budget
save head

period 1 step 104 
print budget
save head

period 1 step 105 
print budget
save head

period 1 step 106 
print budget
save head

period 1 step 107 
print budget
save head

period 1 step 108 
print budget
save head

period 1 step 109 
print budget
save head

period 1 step 110 
print budget
save head

period 1 step 111 
print budget
save head

period 1 step 112 
print budget
save head

period 1 step 113 
print budget
save head

period 1 step 114 
print budget
save head

period 1 step 115 
print budget
save head

period 1 step 116 
print budget
save head

period 1 step 117 
print budget
save head

period 1 step 118 
print budget
save head

period 1 step 119 
print budget
save head

period 1 step 120 
print budget
save head

period 1 step 121 
print budget
save head

period 1 step 122 
print budget
save head

period 1 step 123 
print budget
save head

period 1 step 124 
print budget
save head

period 1 step 125 
print budget
save head

period 1 step 126 
print budget
save head

period 1 step 127 
print budget
save head

period 1 step 128 
print budget
save head

period 1 step 129 
print budget
save head

period 1 step 130 
print budget
save head

period 1 step 131 
print budget
save head

period 1 step 132 
print budget
save head

period 1 step 133 
print budget
save head

period 1 step 134 
print budget
save head

period 1 step 135 
print budget
save head

period 1 step 136 
print budget
save head

period 1 step 137 
print budget
save head

period 1 step 138 
print budget
save head

period 1 step 139 
print budget
save head

period 1 step 140 
print budget
save head

period 1 step 141 
print budget
save head

period 1 step 142 
print budget
save head

period 1 step 143 
print budget
save head

period 1 step 144 
print budget
save head

period 1 step 145 
print budget
save head

period 1 step 146 
print budget
save head

period 1 step 147 
print budget
save head

period 1 step 148 
print budget
save head

period 1 step 149 
print budget
save head

period 1 step 150 
print budget
save head

period 1 step 151 
print budget
save head

period 1 step 152 
print budget
save head

period 1 step 153 
print budget
save head

period 1 step 154 
print budget
save head

period 1 step 155 
print budget
save head

period 1 step 156 
print budget
save head

period 1 step 157 
print budget
save head

period 1 step 158 
print budget
save head

period 1 step 159 
print budget
save head

period 1 step 160 
print budget
save head

period 1 step 161 
print budget
save head

period 1 step 162 
print budget
save head

period 1 step 163 
print budget
save head

period 1 step 164 
print budget
save head

period 1 step 165 
print budget
save head

period 1 step 166 
print budget
save head

period 1 step 167 
print budget
save head

period 1 step 168 
print budget
save head

period 1 step 169 
print budget
save head

period 1 step 170 
print budget
save head

period 1 step 171 
print budget
save head

period 1 step 172 
print budget
save head

period 1 step 173 
print budget
save head

period 1 step 174 
print budget
save head

period 1 step 175 
print budget
save head

period 1 step 176 
print budget
save head

period 1 step 177 
print budget
save head

period 1 step 178 
print budget
save head

period 1 step 179 
print budget
save head

period 1 step 180 
print budget
save head

period 1 step 181 
print budget
save head

period 1 step 182 
print budget
save head

period 1 step 183 
print budget
save head

period 1 step 184 
print budget
save head

period 1 step 185 
print budget
save head

period 1 step 186 
print budget
save head

period 1 step 187 
print budget
save head

period 1 step 188 
print budget
save head

period 1 step 189 
print budget
save head

period 1 step 190 
print budget
save head

period 1 step 191 
print budget
save head

period 1 step 192 
print budget
save head

period 1 step 193 
print budget
save head

period 1 step 194 
print budget
save head

period 1 step 195 
print budget
save head

period 1 step 196 
print budget
save head

period 1 step 197 
print budget
save head

period 1 step 198 
print budget
save head

period 1 step 199 
print budget
save head

period 1 step 200 
print budget
save head

