# Well file for MODFLOW, generated by Flopy.
         1         0
         1         0 # stress period 0
         4         1      1000  -0.16416
