# PCG for MODFLOW, generated by Flopy.
100 50 1 0
1e-09 3e-06 1.0 0 0 3 1.0 
