# RCH for MODFLOW, generated by Flopy.
         3         0
         1        -1 # Stress period 1
INTERNAL               1     (FREE) -1 #rech                          
   1.382400E-04   1.382400E-04   1.382400E-04   1.382400E-04   1.382400E-04   1.382400E-04   1.382400E-04   1.382400E-04   1.382400E-04   1.382400E-04   1.382400E-04   1.382400E-04   1.382400E-04   1.382400E-04   1.382400E-04   1.382400E-04   1.382400E-04   1.382400E-04   1.382400E-04   1.382400E-04
   1.382400E-04   1.382400E-04   1.382400E-04   1.382400E-04   1.382400E-04   1.382400E-04   1.382400E-04   1.382400E-04   1.382400E-04   1.382400E-04   1.382400E-04   1.382400E-04   1.382400E-04   1.382400E-04   1.382400E-04   1.382400E-04   1.382400E-04   1.382400E-04   1.382400E-04   1.382400E-04
   1.382400E-04   1.382400E-04   1.382400E-04   1.382400E-04   1.382400E-04   1.382400E-04   1.382400E-04   1.382400E-04   1.382400E-04   1.382400E-04   1.382400E-04   1.382400E-04   1.382400E-04   1.382400E-04   1.382400E-04   1.382400E-04   1.382400E-04   1.382400E-04   1.382400E-04   1.382400E-04
   1.382400E-04   1.382400E-04   1.382400E-04   1.382400E-04   1.382400E-04   1.382400E-04   1.382400E-04   1.382400E-04   1.382400E-04   1.382400E-04   1.382400E-04   1.382400E-04   1.382400E-04   1.382400E-04   1.382400E-04   1.382400E-04   1.382400E-04   1.382400E-04   1.382400E-04   1.382400E-04
   1.382400E-04   1.382400E-04   1.382400E-04   1.382400E-04   1.382400E-04   1.382400E-04   1.382400E-04   1.382400E-04   1.382400E-04   1.382400E-04   1.382400E-04   1.382400E-04   1.382400E-04   1.382400E-04   1.382400E-04   1.382400E-04   1.382400E-04   1.382400E-04   1.382400E-04   1.382400E-04
   1.382400E-04   1.382400E-04   1.382400E-04   1.382400E-04   1.382400E-04   1.382400E-04   1.382400E-04   1.382400E-04   1.382400E-04   1.382400E-04   1.382400E-04   1.382400E-04   1.382400E-04   1.382400E-04   1.382400E-04   1.382400E-04   1.382400E-04   1.382400E-04   1.382400E-04   1.382400E-04
   1.382400E-04   1.382400E-04   1.382400E-04   1.382400E-04   1.382400E-04   1.382400E-04   1.382400E-04   1.382400E-04   1.382400E-04   1.382400E-04   1.382400E-04   1.382400E-04   1.382400E-04   1.382400E-04   1.382400E-04   1.382400E-04   1.382400E-04   1.382400E-04   1.382400E-04   1.382400E-04
   1.382400E-04   1.382400E-04   1.382400E-04   1.382400E-04   1.382400E-04   1.382400E-04   1.382400E-04   1.382400E-04   1.382400E-04   1.382400E-04   1.382400E-04   1.382400E-04   1.382400E-04   1.382400E-04   1.382400E-04   1.382400E-04   1.382400E-04   1.382400E-04   1.382400E-04   1.382400E-04
   1.382400E-04   1.382400E-04   1.382400E-04   1.382400E-04   1.382400E-04   1.382400E-04   1.382400E-04   1.382400E-04   1.382400E-04   1.382400E-04   1.382400E-04   1.382400E-04   1.382400E-04   1.382400E-04   1.382400E-04   1.382400E-04   1.382400E-04   1.382400E-04   1.382400E-04   1.382400E-04
   1.382400E-04   1.382400E-04   1.382400E-04   1.382400E-04   1.382400E-04   1.382400E-04   1.382400E-04   1.382400E-04   1.382400E-04   1.382400E-04   1.382400E-04   1.382400E-04   1.382400E-04   1.382400E-04   1.382400E-04   1.382400E-04   1.382400E-04   1.382400E-04   1.382400E-04   1.382400E-04
   1.382400E-04   1.382400E-04   1.382400E-04   1.382400E-04   1.382400E-04   1.382400E-04   1.382400E-04   1.382400E-04   1.382400E-04   1.382400E-04   1.382400E-04   1.382400E-04   1.382400E-04   1.382400E-04   1.382400E-04   1.382400E-04   1.382400E-04   1.382400E-04   1.382400E-04   1.382400E-04
   1.382400E-04   1.382400E-04   1.382400E-04   1.382400E-04   1.382400E-04   1.382400E-04   1.382400E-04   1.382400E-04   1.382400E-04   1.382400E-04   1.382400E-04   1.382400E-04   1.382400E-04   1.382400E-04   1.382400E-04   1.382400E-04   1.382400E-04   1.382400E-04   1.382400E-04   1.382400E-04
   1.382400E-04   1.382400E-04   1.382400E-04   1.382400E-04   1.382400E-04   1.382400E-04   1.382400E-04   1.382400E-04   1.382400E-04   1.382400E-04   1.382400E-04   1.382400E-04   1.382400E-04   1.382400E-04   1.382400E-04   1.382400E-04   1.382400E-04   1.382400E-04   1.382400E-04   1.382400E-04
   1.382400E-04   1.382400E-04   1.382400E-04   1.382400E-04   1.382400E-04   1.382400E-04   1.382400E-04   1.382400E-04   1.382400E-04   1.382400E-04   1.382400E-04   1.382400E-04   1.382400E-04   1.382400E-04   1.382400E-04   1.382400E-04   1.382400E-04   1.382400E-04   1.382400E-04   1.382400E-04
   1.382400E-04   1.382400E-04   1.382400E-04   1.382400E-04   1.382400E-04   1.382400E-04   1.382400E-04   1.382400E-04   1.382400E-04   1.382400E-04   1.382400E-04   1.382400E-04   1.382400E-04   1.382400E-04   1.382400E-04   1.382400E-04   1.382400E-04   1.382400E-04   1.382400E-04   1.382400E-04
   1.382400E-04   1.382400E-04   1.382400E-04   1.382400E-04   1.382400E-04   1.382400E-04   1.382400E-04   1.382400E-04   1.382400E-04   1.382400E-04   1.382400E-04   1.382400E-04   1.382400E-04   1.382400E-04   1.382400E-04   1.382400E-04   1.382400E-04   1.382400E-04   1.382400E-04   1.382400E-04
   1.382400E-04   1.382400E-04   1.382400E-04   1.382400E-04   1.382400E-04   1.382400E-04   1.382400E-04   1.382400E-04   1.382400E-04   1.382400E-04   1.382400E-04   1.382400E-04   1.382400E-04   1.382400E-04   1.382400E-04   1.382400E-04   1.382400E-04   1.382400E-04   1.382400E-04   1.382400E-04
   1.382400E-04   1.382400E-04   1.382400E-04   1.382400E-04   1.382400E-04   1.382400E-04   1.382400E-04   1.382400E-04   1.382400E-04   1.382400E-04   1.382400E-04   1.382400E-04   1.382400E-04   1.382400E-04   1.382400E-04   1.382400E-04   1.382400E-04   1.382400E-04   1.382400E-04   1.382400E-04
   1.382400E-04   1.382400E-04   1.382400E-04   1.382400E-04   1.382400E-04   1.382400E-04   1.382400E-04   1.382400E-04   1.382400E-04   1.382400E-04   1.382400E-04   1.382400E-04   1.382400E-04   1.382400E-04   1.382400E-04   1.382400E-04   1.382400E-04   1.382400E-04   1.382400E-04   1.382400E-04
   1.382400E-04   1.382400E-04   1.382400E-04   1.382400E-04   1.382400E-04   1.382400E-04   1.382400E-04   1.382400E-04   1.382400E-04   1.382400E-04   1.382400E-04   1.382400E-04   1.382400E-04   1.382400E-04   1.382400E-04   1.382400E-04   1.382400E-04   1.382400E-04   1.382400E-04   1.382400E-04
   1.382400E-04   1.382400E-04   1.382400E-04   1.382400E-04   1.382400E-04   1.382400E-04   1.382400E-04   1.382400E-04   1.382400E-04   1.382400E-04   1.382400E-04   1.382400E-04   1.382400E-04   1.382400E-04   1.382400E-04   1.382400E-04   1.382400E-04   1.382400E-04   1.382400E-04   1.382400E-04
   1.382400E-04   1.382400E-04   1.382400E-04   1.382400E-04   1.382400E-04   1.382400E-04   1.382400E-04   1.382400E-04   1.382400E-04   1.382400E-04   1.382400E-04   1.382400E-04   1.382400E-04   1.382400E-04   1.382400E-04   1.382400E-04   1.382400E-04   1.382400E-04   1.382400E-04   1.382400E-04
   1.382400E-04   1.382400E-04   1.382400E-04   1.382400E-04   1.382400E-04   1.382400E-04   1.382400E-04   1.382400E-04   1.382400E-04   1.382400E-04   1.382400E-04   1.382400E-04   1.382400E-04   1.382400E-04   1.382400E-04   1.382400E-04   1.382400E-04   1.382400E-04   1.382400E-04   1.382400E-04
   1.382400E-04   1.382400E-04   1.382400E-04   1.382400E-04   1.382400E-04   1.382400E-04   1.382400E-04   1.382400E-04   1.382400E-04   1.382400E-04   1.382400E-04   1.382400E-04   1.382400E-04   1.382400E-04   1.382400E-04   1.382400E-04   1.382400E-04   1.382400E-04   1.382400E-04   1.382400E-04
   1.382400E-04   1.382400E-04   1.382400E-04   1.382400E-04   1.382400E-04   1.382400E-04   1.382400E-04   1.382400E-04   1.382400E-04   1.382400E-04   1.382400E-04   1.382400E-04   1.382400E-04   1.382400E-04   1.382400E-04   1.382400E-04   1.382400E-04   1.382400E-04   1.382400E-04   1.382400E-04
   1.382400E-04   1.382400E-04   1.382400E-04   1.382400E-04   1.382400E-04   1.382400E-04   1.382400E-04   1.382400E-04   1.382400E-04   1.382400E-04   1.382400E-04   1.382400E-04   1.382400E-04   1.382400E-04   1.382400E-04   1.382400E-04   1.382400E-04   1.382400E-04   1.382400E-04   1.382400E-04
   1.382400E-04   1.382400E-04   1.382400E-04   1.382400E-04   1.382400E-04   1.382400E-04   1.382400E-04   1.382400E-04   1.382400E-04   1.382400E-04   1.382400E-04   1.382400E-04   1.382400E-04   1.382400E-04   1.382400E-04   1.382400E-04   1.382400E-04   1.382400E-04   1.382400E-04   1.382400E-04
   1.382400E-04   1.382400E-04   1.382400E-04   1.382400E-04   1.382400E-04   1.382400E-04   1.382400E-04   1.382400E-04   1.382400E-04   1.382400E-04   1.382400E-04   1.382400E-04   1.382400E-04   1.382400E-04   1.382400E-04   1.382400E-04   1.382400E-04   1.382400E-04   1.382400E-04   1.382400E-04
   1.382400E-04   1.382400E-04   1.382400E-04   1.382400E-04   1.382400E-04   1.382400E-04   1.382400E-04   1.382400E-04   1.382400E-04   1.382400E-04   1.382400E-04   1.382400E-04   1.382400E-04   1.382400E-04   1.382400E-04   1.382400E-04   1.382400E-04   1.382400E-04   1.382400E-04   1.382400E-04
   1.382400E-04   1.382400E-04   1.382400E-04   1.382400E-04   1.382400E-04   1.382400E-04   1.382400E-04   1.382400E-04   1.382400E-04   1.382400E-04   1.382400E-04   1.382400E-04   1.382400E-04   1.382400E-04   1.382400E-04   1.382400E-04   1.382400E-04   1.382400E-04   1.382400E-04   1.382400E-04
   1.382400E-04   1.382400E-04   1.382400E-04   1.382400E-04   1.382400E-04   1.382400E-04   1.382400E-04   1.382400E-04   1.382400E-04   1.382400E-04   1.382400E-04   1.382400E-04   1.382400E-04   1.382400E-04   1.382400E-04   1.382400E-04   1.382400E-04   1.382400E-04   1.382400E-04   1.382400E-04
   1.382400E-04   1.382400E-04   1.382400E-04   1.382400E-04   1.382400E-04   1.382400E-04   1.382400E-04   1.382400E-04   1.382400E-04   1.382400E-04   1.382400E-04   1.382400E-04   1.382400E-04   1.382400E-04   1.382400E-04   1.382400E-04   1.382400E-04   1.382400E-04   1.382400E-04   1.382400E-04
   1.382400E-04   1.382400E-04   1.382400E-04   1.382400E-04   1.382400E-04   1.382400E-04   1.382400E-04   1.382400E-04   1.382400E-04   1.382400E-04   1.382400E-04   1.382400E-04   1.382400E-04   1.382400E-04   1.382400E-04   1.382400E-04   1.382400E-04   1.382400E-04   1.382400E-04   1.382400E-04
   1.382400E-04   1.382400E-04   1.382400E-04   1.382400E-04   1.382400E-04   1.382400E-04   1.382400E-04   1.382400E-04   1.382400E-04   1.382400E-04   1.382400E-04   1.382400E-04   1.382400E-04   1.382400E-04   1.382400E-04   1.382400E-04   1.382400E-04   1.382400E-04   1.382400E-04   1.382400E-04
   1.382400E-04   1.382400E-04   1.382400E-04   1.382400E-04   1.382400E-04   1.382400E-04   1.382400E-04   1.382400E-04   1.382400E-04   1.382400E-04   1.382400E-04   1.382400E-04   1.382400E-04   1.382400E-04   1.382400E-04   1.382400E-04   1.382400E-04   1.382400E-04   1.382400E-04   1.382400E-04
   1.382400E-04   1.382400E-04   1.382400E-04   1.382400E-04   1.382400E-04   1.382400E-04   1.382400E-04   1.382400E-04   1.382400E-04   1.382400E-04   1.382400E-04   1.382400E-04   1.382400E-04   1.382400E-04   1.382400E-04   1.382400E-04   1.382400E-04   1.382400E-04   1.382400E-04   1.382400E-04
   1.382400E-04   1.382400E-04   1.382400E-04   1.382400E-04   1.382400E-04   1.382400E-04   1.382400E-04   1.382400E-04   1.382400E-04   1.382400E-04   1.382400E-04   1.382400E-04   1.382400E-04   1.382400E-04   1.382400E-04   1.382400E-04   1.382400E-04   1.382400E-04   1.382400E-04   1.382400E-04
   1.382400E-04   1.382400E-04   1.382400E-04   1.382400E-04   1.382400E-04   1.382400E-04   1.382400E-04   1.382400E-04   1.382400E-04   1.382400E-04   1.382400E-04   1.382400E-04   1.382400E-04   1.382400E-04   1.382400E-04   1.382400E-04   1.382400E-04   1.382400E-04   1.382400E-04   1.382400E-04
   1.382400E-04   1.382400E-04   1.382400E-04   1.382400E-04   1.382400E-04   1.382400E-04   1.382400E-04   1.382400E-04   1.382400E-04   1.382400E-04   1.382400E-04   1.382400E-04   1.382400E-04   1.382400E-04   1.382400E-04   1.382400E-04   1.382400E-04   1.382400E-04   1.382400E-04   1.382400E-04
   1.382400E-04   1.382400E-04   1.382400E-04   1.382400E-04   1.382400E-04   1.382400E-04   1.382400E-04   1.382400E-04   1.382400E-04   1.382400E-04   1.382400E-04   1.382400E-04   1.382400E-04   1.382400E-04   1.382400E-04   1.382400E-04   1.382400E-04   1.382400E-04   1.382400E-04   1.382400E-04
         1        -1 # Stress period 2
INTERNAL               1     (FREE) -1 #rech                          
   6.912000E-05   6.912000E-05   6.912000E-05   6.912000E-05   6.912000E-05   6.912000E-05   6.912000E-05   6.912000E-05   6.912000E-05   6.912000E-05   6.912000E-05   6.912000E-05   6.912000E-05   6.912000E-05   6.912000E-05   6.912000E-05   6.912000E-05   6.912000E-05   6.912000E-05   6.912000E-05
   6.912000E-05   6.912000E-05   6.912000E-05   6.912000E-05   6.912000E-05   6.912000E-05   6.912000E-05   6.912000E-05   6.912000E-05   6.912000E-05   6.912000E-05   6.912000E-05   6.912000E-05   6.912000E-05   6.912000E-05   6.912000E-05   6.912000E-05   6.912000E-05   6.912000E-05   6.912000E-05
   6.912000E-05   6.912000E-05   6.912000E-05   6.912000E-05   6.912000E-05   6.912000E-05   6.912000E-05   6.912000E-05   6.912000E-05   6.912000E-05   6.912000E-05   6.912000E-05   6.912000E-05   6.912000E-05   6.912000E-05   6.912000E-05   6.912000E-05   6.912000E-05   6.912000E-05   6.912000E-05
   6.912000E-05   6.912000E-05   6.912000E-05   6.912000E-05   6.912000E-05   6.912000E-05   6.912000E-05   6.912000E-05   6.912000E-05   6.912000E-05   6.912000E-05   6.912000E-05   6.912000E-05   6.912000E-05   6.912000E-05   6.912000E-05   6.912000E-05   6.912000E-05   6.912000E-05   6.912000E-05
   6.912000E-05   6.912000E-05   6.912000E-05   6.912000E-05   6.912000E-05   6.912000E-05   6.912000E-05   6.912000E-05   6.912000E-05   6.912000E-05   6.912000E-05   6.912000E-05   6.912000E-05   6.912000E-05   6.912000E-05   6.912000E-05   6.912000E-05   6.912000E-05   6.912000E-05   6.912000E-05
   6.912000E-05   6.912000E-05   6.912000E-05   6.912000E-05   6.912000E-05   6.912000E-05   6.912000E-05   6.912000E-05   6.912000E-05   6.912000E-05   6.912000E-05   6.912000E-05   6.912000E-05   6.912000E-05   6.912000E-05   6.912000E-05   6.912000E-05   6.912000E-05   6.912000E-05   6.912000E-05
   6.912000E-05   6.912000E-05   6.912000E-05   6.912000E-05   6.912000E-05   6.912000E-05   6.912000E-05   6.912000E-05   6.912000E-05   6.912000E-05   6.912000E-05   6.912000E-05   6.912000E-05   6.912000E-05   6.912000E-05   6.912000E-05   6.912000E-05   6.912000E-05   6.912000E-05   6.912000E-05
   6.912000E-05   6.912000E-05   6.912000E-05   6.912000E-05   6.912000E-05   6.912000E-05   6.912000E-05   6.912000E-05   6.912000E-05   6.912000E-05   6.912000E-05   6.912000E-05   6.912000E-05   6.912000E-05   6.912000E-05   6.912000E-05   6.912000E-05   6.912000E-05   6.912000E-05   6.912000E-05
   6.912000E-05   6.912000E-05   6.912000E-05   6.912000E-05   6.912000E-05   6.912000E-05   6.912000E-05   6.912000E-05   6.912000E-05   6.912000E-05   6.912000E-05   6.912000E-05   6.912000E-05   6.912000E-05   6.912000E-05   6.912000E-05   6.912000E-05   6.912000E-05   6.912000E-05   6.912000E-05
   6.912000E-05   6.912000E-05   6.912000E-05   6.912000E-05   6.912000E-05   6.912000E-05   6.912000E-05   6.912000E-05   6.912000E-05   6.912000E-05   6.912000E-05   6.912000E-05   6.912000E-05   6.912000E-05   6.912000E-05   6.912000E-05   6.912000E-05   6.912000E-05   6.912000E-05   6.912000E-05
   6.912000E-05   6.912000E-05   6.912000E-05   6.912000E-05   6.912000E-05   6.912000E-05   6.912000E-05   6.912000E-05   6.912000E-05   6.912000E-05   6.912000E-05   6.912000E-05   6.912000E-05   6.912000E-05   6.912000E-05   6.912000E-05   6.912000E-05   6.912000E-05   6.912000E-05   6.912000E-05
   6.912000E-05   6.912000E-05   6.912000E-05   6.912000E-05   6.912000E-05   6.912000E-05   6.912000E-05   6.912000E-05   6.912000E-05   6.912000E-05   6.912000E-05   6.912000E-05   6.912000E-05   6.912000E-05   6.912000E-05   6.912000E-05   6.912000E-05   6.912000E-05   6.912000E-05   6.912000E-05
   6.912000E-05   6.912000E-05   6.912000E-05   6.912000E-05   6.912000E-05   6.912000E-05   6.912000E-05   6.912000E-05   6.912000E-05   6.912000E-05   6.912000E-05   6.912000E-05   6.912000E-05   6.912000E-05   6.912000E-05   6.912000E-05   6.912000E-05   6.912000E-05   6.912000E-05   6.912000E-05
   6.912000E-05   6.912000E-05   6.912000E-05   6.912000E-05   6.912000E-05   6.912000E-05   6.912000E-05   6.912000E-05   6.912000E-05   6.912000E-05   6.912000E-05   6.912000E-05   6.912000E-05   6.912000E-05   6.912000E-05   6.912000E-05   6.912000E-05   6.912000E-05   6.912000E-05   6.912000E-05
   6.912000E-05   6.912000E-05   6.912000E-05   6.912000E-05   6.912000E-05   6.912000E-05   6.912000E-05   6.912000E-05   6.912000E-05   6.912000E-05   6.912000E-05   6.912000E-05   6.912000E-05   6.912000E-05   6.912000E-05   6.912000E-05   6.912000E-05   6.912000E-05   6.912000E-05   6.912000E-05
   6.912000E-05   6.912000E-05   6.912000E-05   6.912000E-05   6.912000E-05   6.912000E-05   6.912000E-05   6.912000E-05   6.912000E-05   6.912000E-05   6.912000E-05   6.912000E-05   6.912000E-05   6.912000E-05   6.912000E-05   6.912000E-05   6.912000E-05   6.912000E-05   6.912000E-05   6.912000E-05
   6.912000E-05   6.912000E-05   6.912000E-05   6.912000E-05   6.912000E-05   6.912000E-05   6.912000E-05   6.912000E-05   6.912000E-05   6.912000E-05   6.912000E-05   6.912000E-05   6.912000E-05   6.912000E-05   6.912000E-05   6.912000E-05   6.912000E-05   6.912000E-05   6.912000E-05   6.912000E-05
   6.912000E-05   6.912000E-05   6.912000E-05   6.912000E-05   6.912000E-05   6.912000E-05   6.912000E-05   6.912000E-05   6.912000E-05   6.912000E-05   6.912000E-05   6.912000E-05   6.912000E-05   6.912000E-05   6.912000E-05   6.912000E-05   6.912000E-05   6.912000E-05   6.912000E-05   6.912000E-05
   6.912000E-05   6.912000E-05   6.912000E-05   6.912000E-05   6.912000E-05   6.912000E-05   6.912000E-05   6.912000E-05   6.912000E-05   6.912000E-05   6.912000E-05   6.912000E-05   6.912000E-05   6.912000E-05   6.912000E-05   6.912000E-05   6.912000E-05   6.912000E-05   6.912000E-05   6.912000E-05
   6.912000E-05   6.912000E-05   6.912000E-05   6.912000E-05   6.912000E-05   6.912000E-05   6.912000E-05   6.912000E-05   6.912000E-05   6.912000E-05   6.912000E-05   6.912000E-05   6.912000E-05   6.912000E-05   6.912000E-05   6.912000E-05   6.912000E-05   6.912000E-05   6.912000E-05   6.912000E-05
   6.912000E-05   6.912000E-05   6.912000E-05   6.912000E-05   6.912000E-05   6.912000E-05   6.912000E-05   6.912000E-05   6.912000E-05   6.912000E-05   6.912000E-05   6.912000E-05   6.912000E-05   6.912000E-05   6.912000E-05   6.912000E-05   6.912000E-05   6.912000E-05   6.912000E-05   6.912000E-05
   6.912000E-05   6.912000E-05   6.912000E-05   6.912000E-05   6.912000E-05   6.912000E-05   6.912000E-05   6.912000E-05   6.912000E-05   6.912000E-05   6.912000E-05   6.912000E-05   6.912000E-05   6.912000E-05   6.912000E-05   6.912000E-05   6.912000E-05   6.912000E-05   6.912000E-05   6.912000E-05
   6.912000E-05   6.912000E-05   6.912000E-05   6.912000E-05   6.912000E-05   6.912000E-05   6.912000E-05   6.912000E-05   6.912000E-05   6.912000E-05   6.912000E-05   6.912000E-05   6.912000E-05   6.912000E-05   6.912000E-05   6.912000E-05   6.912000E-05   6.912000E-05   6.912000E-05   6.912000E-05
   6.912000E-05   6.912000E-05   6.912000E-05   6.912000E-05   6.912000E-05   6.912000E-05   6.912000E-05   6.912000E-05   6.912000E-05   6.912000E-05   6.912000E-05   6.912000E-05   6.912000E-05   6.912000E-05   6.912000E-05   6.912000E-05   6.912000E-05   6.912000E-05   6.912000E-05   6.912000E-05
   6.912000E-05   6.912000E-05   6.912000E-05   6.912000E-05   6.912000E-05   6.912000E-05   6.912000E-05   6.912000E-05   6.912000E-05   6.912000E-05   6.912000E-05   6.912000E-05   6.912000E-05   6.912000E-05   6.912000E-05   6.912000E-05   6.912000E-05   6.912000E-05   6.912000E-05   6.912000E-05
   6.912000E-05   6.912000E-05   6.912000E-05   6.912000E-05   6.912000E-05   6.912000E-05   6.912000E-05   6.912000E-05   6.912000E-05   6.912000E-05   6.912000E-05   6.912000E-05   6.912000E-05   6.912000E-05   6.912000E-05   6.912000E-05   6.912000E-05   6.912000E-05   6.912000E-05   6.912000E-05
   6.912000E-05   6.912000E-05   6.912000E-05   6.912000E-05   6.912000E-05   6.912000E-05   6.912000E-05   6.912000E-05   6.912000E-05   6.912000E-05   6.912000E-05   6.912000E-05   6.912000E-05   6.912000E-05   6.912000E-05   6.912000E-05   6.912000E-05   6.912000E-05   6.912000E-05   6.912000E-05
   6.912000E-05   6.912000E-05   6.912000E-05   6.912000E-05   6.912000E-05   6.912000E-05   6.912000E-05   6.912000E-05   6.912000E-05   6.912000E-05   6.912000E-05   6.912000E-05   6.912000E-05   6.912000E-05   6.912000E-05   6.912000E-05   6.912000E-05   6.912000E-05   6.912000E-05   6.912000E-05
   6.912000E-05   6.912000E-05   6.912000E-05   6.912000E-05   6.912000E-05   6.912000E-05   6.912000E-05   6.912000E-05   6.912000E-05   6.912000E-05   6.912000E-05   6.912000E-05   6.912000E-05   6.912000E-05   6.912000E-05   6.912000E-05   6.912000E-05   6.912000E-05   6.912000E-05   6.912000E-05
   6.912000E-05   6.912000E-05   6.912000E-05   6.912000E-05   6.912000E-05   6.912000E-05   6.912000E-05   6.912000E-05   6.912000E-05   6.912000E-05   6.912000E-05   6.912000E-05   6.912000E-05   6.912000E-05   6.912000E-05   6.912000E-05   6.912000E-05   6.912000E-05   6.912000E-05   6.912000E-05
   6.912000E-05   6.912000E-05   6.912000E-05   6.912000E-05   6.912000E-05   6.912000E-05   6.912000E-05   6.912000E-05   6.912000E-05   6.912000E-05   6.912000E-05   6.912000E-05   6.912000E-05   6.912000E-05   6.912000E-05   6.912000E-05   6.912000E-05   6.912000E-05   6.912000E-05   6.912000E-05
   6.912000E-05   6.912000E-05   6.912000E-05   6.912000E-05   6.912000E-05   6.912000E-05   6.912000E-05   6.912000E-05   6.912000E-05   6.912000E-05   6.912000E-05   6.912000E-05   6.912000E-05   6.912000E-05   6.912000E-05   6.912000E-05   6.912000E-05   6.912000E-05   6.912000E-05   6.912000E-05
   6.912000E-05   6.912000E-05   6.912000E-05   6.912000E-05   6.912000E-05   6.912000E-05   6.912000E-05   6.912000E-05   6.912000E-05   6.912000E-05   6.912000E-05   6.912000E-05   6.912000E-05   6.912000E-05   6.912000E-05   6.912000E-05   6.912000E-05   6.912000E-05   6.912000E-05   6.912000E-05
   6.912000E-05   6.912000E-05   6.912000E-05   6.912000E-05   6.912000E-05   6.912000E-05   6.912000E-05   6.912000E-05   6.912000E-05   6.912000E-05   6.912000E-05   6.912000E-05   6.912000E-05   6.912000E-05   6.912000E-05   6.912000E-05   6.912000E-05   6.912000E-05   6.912000E-05   6.912000E-05
   6.912000E-05   6.912000E-05   6.912000E-05   6.912000E-05   6.912000E-05   6.912000E-05   6.912000E-05   6.912000E-05   6.912000E-05   6.912000E-05   6.912000E-05   6.912000E-05   6.912000E-05   6.912000E-05   6.912000E-05   6.912000E-05   6.912000E-05   6.912000E-05   6.912000E-05   6.912000E-05
   6.912000E-05   6.912000E-05   6.912000E-05   6.912000E-05   6.912000E-05   6.912000E-05   6.912000E-05   6.912000E-05   6.912000E-05   6.912000E-05   6.912000E-05   6.912000E-05   6.912000E-05   6.912000E-05   6.912000E-05   6.912000E-05   6.912000E-05   6.912000E-05   6.912000E-05   6.912000E-05
   6.912000E-05   6.912000E-05   6.912000E-05   6.912000E-05   6.912000E-05   6.912000E-05   6.912000E-05   6.912000E-05   6.912000E-05   6.912000E-05   6.912000E-05   6.912000E-05   6.912000E-05   6.912000E-05   6.912000E-05   6.912000E-05   6.912000E-05   6.912000E-05   6.912000E-05   6.912000E-05
   6.912000E-05   6.912000E-05   6.912000E-05   6.912000E-05   6.912000E-05   6.912000E-05   6.912000E-05   6.912000E-05   6.912000E-05   6.912000E-05   6.912000E-05   6.912000E-05   6.912000E-05   6.912000E-05   6.912000E-05   6.912000E-05   6.912000E-05   6.912000E-05   6.912000E-05   6.912000E-05
   6.912000E-05   6.912000E-05   6.912000E-05   6.912000E-05   6.912000E-05   6.912000E-05   6.912000E-05   6.912000E-05   6.912000E-05   6.912000E-05   6.912000E-05   6.912000E-05   6.912000E-05   6.912000E-05   6.912000E-05   6.912000E-05   6.912000E-05   6.912000E-05   6.912000E-05   6.912000E-05
   6.912000E-05   6.912000E-05   6.912000E-05   6.912000E-05   6.912000E-05   6.912000E-05   6.912000E-05   6.912000E-05   6.912000E-05   6.912000E-05   6.912000E-05   6.912000E-05   6.912000E-05   6.912000E-05   6.912000E-05   6.912000E-05   6.912000E-05   6.912000E-05   6.912000E-05   6.912000E-05
         1        -1 # Stress period 3
INTERNAL               1     (FREE) -1 #rech                          
   6.912000E-05   6.912000E-05   6.912000E-05   6.912000E-05   6.912000E-05   6.912000E-05   6.912000E-05   6.912000E-05   6.912000E-05   6.912000E-05   6.912000E-05   6.912000E-05   6.912000E-05   6.912000E-05   6.912000E-05   6.912000E-05   6.912000E-05   6.912000E-05   6.912000E-05   6.912000E-05
   6.912000E-05   6.912000E-05   6.912000E-05   6.912000E-05   6.912000E-05   6.912000E-05   6.912000E-05   6.912000E-05   6.912000E-05   6.912000E-05   6.912000E-05   6.912000E-05   6.912000E-05   6.912000E-05   6.912000E-05   6.912000E-05   6.912000E-05   6.912000E-05   6.912000E-05   6.912000E-05
   6.912000E-05   6.912000E-05   6.912000E-05   6.912000E-05   6.912000E-05   6.912000E-05   6.912000E-05   6.912000E-05   6.912000E-05   6.912000E-05   6.912000E-05   6.912000E-05   6.912000E-05   6.912000E-05   6.912000E-05   6.912000E-05   6.912000E-05   6.912000E-05   6.912000E-05   6.912000E-05
   6.912000E-05   6.912000E-05   6.912000E-05   6.912000E-05   6.912000E-05   6.912000E-05   6.912000E-05   6.912000E-05   6.912000E-05   6.912000E-05   6.912000E-05   6.912000E-05   6.912000E-05   6.912000E-05   6.912000E-05   6.912000E-05   6.912000E-05   6.912000E-05   6.912000E-05   6.912000E-05
   6.912000E-05   6.912000E-05   6.912000E-05   6.912000E-05   6.912000E-05   6.912000E-05   6.912000E-05   6.912000E-05   6.912000E-05   6.912000E-05   6.912000E-05   6.912000E-05   6.912000E-05   6.912000E-05   6.912000E-05   6.912000E-05   6.912000E-05   6.912000E-05   6.912000E-05   6.912000E-05
   6.912000E-05   6.912000E-05   6.912000E-05   6.912000E-05   6.912000E-05   6.912000E-05   6.912000E-05   6.912000E-05   6.912000E-05   6.912000E-05   6.912000E-05   6.912000E-05   6.912000E-05   6.912000E-05   6.912000E-05   6.912000E-05   6.912000E-05   6.912000E-05   6.912000E-05   6.912000E-05
   6.912000E-05   6.912000E-05   6.912000E-05   6.912000E-05   6.912000E-05   6.912000E-05   6.912000E-05   6.912000E-05   6.912000E-05   6.912000E-05   6.912000E-05   6.912000E-05   6.912000E-05   6.912000E-05   6.912000E-05   6.912000E-05   6.912000E-05   6.912000E-05   6.912000E-05   6.912000E-05
   6.912000E-05   6.912000E-05   6.912000E-05   6.912000E-05   6.912000E-05   6.912000E-05   6.912000E-05   6.912000E-05   6.912000E-05   6.912000E-05   6.912000E-05   6.912000E-05   6.912000E-05   6.912000E-05   6.912000E-05   6.912000E-05   6.912000E-05   6.912000E-05   6.912000E-05   6.912000E-05
   6.912000E-05   6.912000E-05   6.912000E-05   6.912000E-05   6.912000E-05   6.912000E-05   6.912000E-05   6.912000E-05   6.912000E-05   6.912000E-05   6.912000E-05   6.912000E-05   6.912000E-05   6.912000E-05   6.912000E-05   6.912000E-05   6.912000E-05   6.912000E-05   6.912000E-05   6.912000E-05
   6.912000E-05   6.912000E-05   6.912000E-05   6.912000E-05   6.912000E-05   6.912000E-05   6.912000E-05   6.912000E-05   6.912000E-05   6.912000E-05   6.912000E-05   6.912000E-05   6.912000E-05   6.912000E-05   6.912000E-05   6.912000E-05   6.912000E-05   6.912000E-05   6.912000E-05   6.912000E-05
   6.912000E-05   6.912000E-05   6.912000E-05   6.912000E-05   6.912000E-05   6.912000E-05   6.912000E-05   6.912000E-05   6.912000E-05   6.912000E-05   6.912000E-05   6.912000E-05   6.912000E-05   6.912000E-05   6.912000E-05   6.912000E-05   6.912000E-05   6.912000E-05   6.912000E-05   6.912000E-05
   6.912000E-05   6.912000E-05   6.912000E-05   6.912000E-05   6.912000E-05   6.912000E-05   6.912000E-05   6.912000E-05   6.912000E-05   6.912000E-05   6.912000E-05   6.912000E-05   6.912000E-05   6.912000E-05   6.912000E-05   6.912000E-05   6.912000E-05   6.912000E-05   6.912000E-05   6.912000E-05
   6.912000E-05   6.912000E-05   6.912000E-05   6.912000E-05   6.912000E-05   6.912000E-05   6.912000E-05   6.912000E-05   6.912000E-05   6.912000E-05   6.912000E-05   6.912000E-05   6.912000E-05   6.912000E-05   6.912000E-05   6.912000E-05   6.912000E-05   6.912000E-05   6.912000E-05   6.912000E-05
   6.912000E-05   6.912000E-05   6.912000E-05   6.912000E-05   6.912000E-05   6.912000E-05   6.912000E-05   6.912000E-05   6.912000E-05   6.912000E-05   6.912000E-05   6.912000E-05   6.912000E-05   6.912000E-05   6.912000E-05   6.912000E-05   6.912000E-05   6.912000E-05   6.912000E-05   6.912000E-05
   6.912000E-05   6.912000E-05   6.912000E-05   6.912000E-05   6.912000E-05   6.912000E-05   6.912000E-05   6.912000E-05   6.912000E-05   6.912000E-05   6.912000E-05   6.912000E-05   6.912000E-05   6.912000E-05   6.912000E-05   6.912000E-05   6.912000E-05   6.912000E-05   6.912000E-05   6.912000E-05
   6.912000E-05   6.912000E-05   6.912000E-05   6.912000E-05   6.912000E-05   6.912000E-05   6.912000E-05   6.912000E-05   6.912000E-05   6.912000E-05   6.912000E-05   6.912000E-05   6.912000E-05   6.912000E-05   6.912000E-05   6.912000E-05   6.912000E-05   6.912000E-05   6.912000E-05   6.912000E-05
   6.912000E-05   6.912000E-05   6.912000E-05   6.912000E-05   6.912000E-05   6.912000E-05   6.912000E-05   6.912000E-05   6.912000E-05   6.912000E-05   6.912000E-05   6.912000E-05   6.912000E-05   6.912000E-05   6.912000E-05   6.912000E-05   6.912000E-05   6.912000E-05   6.912000E-05   6.912000E-05
   6.912000E-05   6.912000E-05   6.912000E-05   6.912000E-05   6.912000E-05   6.912000E-05   6.912000E-05   6.912000E-05   6.912000E-05   6.912000E-05   6.912000E-05   6.912000E-05   6.912000E-05   6.912000E-05   6.912000E-05   6.912000E-05   6.912000E-05   6.912000E-05   6.912000E-05   6.912000E-05