# MODFLOW2000 Discretization File
 1  9  9 25  1  2
 0 0
         0  1000.000(10E12.4)                    0     DELTA-X or C
         0  1000.000(10E12.4)                    0     DELTA-Y or R
         0     5.000(10e12.4)                   -1     TOP of Model
         0    -5.000(10e12.4)                   -1     BOTTOM of Layer   1
    3600.0   02  1.000000  TR 01
    3600.0   02  1.000000  TR 02
    3600.0   02  1.000000  TR 03
    3600.0   02  1.000000  TR 04
    3600.0   02  1.000000  TR 05
    3600.0   02  1.000000  TR 06
    3600.0   02  1.000000  TR 07
    3600.0   02  1.000000  TR 08
    3600.0   02  1.000000  TR 09
    3600.0   02  1.000000  TR 10
    3600.0   02  1.000000  TR 11
    3600.0   02  1.000000  TR 12
    3600.0   02  1.000000  TR 13
    3600.0   02  1.000000  TR 14
    3600.0   02  1.000000  TR 15
    3600.0   02  1.000000  TR 16
    3600.0   02  1.000000  TR 17
    3600.0   02  1.000000  TR 18
    3600.0   02  1.000000  TR 19
    3600.0   02  1.000000  TR 20
    3600.0   02  1.000000  TR 21
    3600.0   02  1.000000  TR 22
    3600.0   02  1.000000  TR 23
    3600.0   02  1.000000  TR 24
  518400.0  288  1.000000  TR 25
