                                  MODFLOW-NWT-SWR1 
      U.S. GEOLOGICAL SURVEY MODULAR FINITE-DIFFERENCE GROUNDWATER-FLOW MODEL
                            VERSION 1.0.9 07/01/2014
                    BASED ON MODFLOW-2005 VERSION 1.11.00 08/30/2013

 LIST FILE: swr012.lst
                         UNIT    7

 OPENING swr012.bas
 FILE TYPE:BAS6   UNIT    1   STATUS:OLD    
 FORMAT:FORMATTED              ACCESS:SEQUENTIAL          

 OPENING swr012.dis
 FILE TYPE:DIS   UNIT   29   STATUS:OLD    
 FORMAT:FORMATTED              ACCESS:SEQUENTIAL          

 OPENING swr012.lpf
 FILE TYPE:LPF   UNIT   11   STATUS:OLD    
 FORMAT:FORMATTED              ACCESS:SEQUENTIAL          

 OPENING swr012.ghb
 FILE TYPE:GHB   UNIT   17   STATUS:OLD    
 FORMAT:FORMATTED              ACCESS:SEQUENTIAL          

 OPENING swr012.oc
 FILE TYPE:OC   UNIT   22   STATUS:OLD    
 FORMAT:FORMATTED              ACCESS:SEQUENTIAL          

 OPENING swr012.pcg
 FILE TYPE:PCG   UNIT   19   STATUS:OLD    
 FORMAT:FORMATTED              ACCESS:SEQUENTIAL          

 OPENING swr012.swr
 FILE TYPE:SWR   UNIT   61   STATUS:OLD    
 FORMAT:FORMATTED              ACCESS:SEQUENTIAL          

 OPENING swr012.flow
 FILE TYPE:DATA(BINARY)   UNIT  101   STATUS:UNKNOWN
 FORMAT:BINARY                 ACCESS:SEQUENTIAL          

 OPENING swr012.stg
 FILE TYPE:DATA(BINARY)   UNIT  102   STATUS:UNKNOWN
 FORMAT:BINARY                 ACCESS:SEQUENTIAL          

 OPENING swr012.vel
 FILE TYPE:DATA(BINARY)   UNIT  103   STATUS:UNKNOWN
 FORMAT:BINARY                 ACCESS:SEQUENTIAL          

 BAS -- BASIC PACKAGE, VERSION 7, 5/2/2005 INPUT READ FROM UNIT    1
 
 MODFLOW was compiled using mixed precision
 Precision of REAL variables:           6
 Precision of DOUBLE PRECISION variables:          15

 DISCRETIZATION INPUT DATA READ FROM UNIT   29
 # MODFLOW2000 Discretization File
    1 LAYERS        11 ROWS        11 COLUMNS
    1 STRESS PERIOD(S) IN SIMULATION
 MODEL TIME UNIT IS SECONDS
 MODEL LENGTH UNIT IS METERS
  Confining bed flag for each layer:
   0

                     DELR =   500.000    

                     DELC =   500.000    



           TOP ELEVATION OF LAYER 1
 READING ON UNIT   29 WITH FORMAT: (11e6.2)            

   MODEL LAYER BOTTOM EL. =  -5.00000     FOR LAYER   1


 STRESS PERIOD     LENGTH       TIME STEPS     MULTIPLIER FOR DELT    SS FLAG
 ----------------------------------------------------------------------------
        1        1.0000000          1                    1.000         SS

 STEADY-STATE SIMULATION



 
 # MODFLOW2005 Basic Package                                                     
 #MODFLOW Data Set Created by Groundwater Vistas                                 
 #

           BOUNDARY ARRAY =              1 FOR LAYER   1

 AQUIFER HEAD WILL BE SET TO   999.00     AT ALL NO-FLOW NODES (IBOUND=0).

             INITIAL HEAD =   4.50000     FOR LAYER   1

 OUTPUT CONTROL IS SPECIFIED ONLY AT TIME STEPS FOR WHICH OUTPUT IS DESIRED
 HEAD PRINT FORMAT CODE IS   0    DRAWDOWN PRINT FORMAT CODE IS   0
 HEADS WILL BE SAVED ON UNIT    0    DRAWDOWNS WILL BE SAVED ON UNIT    0

 LPF -- LAYER-PROPERTY FLOW PACKAGE, VERSION 7, 5/2/2005
         INPUT READ FROM UNIT   11
 # MODFLOW2000 Layer Property Flow (LPF) Package
 HEAD AT CELLS THAT CONVERT TO DRY= -1.00000E+30
 No named parameters

   LAYER FLAGS:
 LAYER       LAYTYP        LAYAVG         CHANI        LAYVKA        LAYWET
 ---------------------------------------------------------------------------
    1             1             0     1.000E+00             0             0

   INTERPRETATION OF LAYER FLAGS:
                        INTERBLOCK     HORIZONTAL    DATA IN
         LAYER TYPE   TRANSMISSIVITY   ANISOTROPY   ARRAY VKA   WETTABILITY
 LAYER      (LAYTYP)      (LAYAVG)       (CHANI)      (LAYVKA)      (LAYWET)
 ---------------------------------------------------------------------------
    1   CONVERTIBLE      HARMONIC     1.000E+00    VERTICAL K  NON-WETTABLE

 WETTING CAPABILITY IS NOT ACTIVE IN ANY LAYER

    HYD. COND. ALONG ROWS =   5.00000     FOR LAYER   1

      VERTICAL HYD. COND. =   5.00000     FOR LAYER   1

 GHB -- GENERAL-HEAD BOUNDARY PACKAGE, VERSION 7, 5/2/2005
         INPUT READ FROM UNIT   17
 # MODFLOW2000 General Head Boundary Package
          0 Named Parameters              0 List entries
 MAXIMUM OF     22 ACTIVE GHB CELLS AT ONE TIME


     0 GHB parameters

 PCG -- CONJUGATE-GRADIENT SOLUTION PACKAGE, VERSION 7, 5/2/2005
 MAXIMUM OF    100 CALLS OF SOLUTION ROUTINE
 MAXIMUM OF     25 INTERNAL ITERATIONS PER CALL TO SOLUTION ROUTINE
 MATRIX PRECONDITIONING TYPE :    1
 IHCOFADD option -- When an active cell is surrounded by dry cells, convert
 the cell to dry only if storage and head-dependent boundary flow are 0.



                                    SOLUTION BY THE CONJUGATE-GRADIENT METHOD
                                   -------------------------------------------
                    MAXIMUM NUMBER OF CALLS TO PCG ROUTINE =      100
                        MAXIMUM ITERATIONS PER CALL TO PCG =       25
                               MATRIX PRECONDITIONING TYPE =        1
        RELAXATION FACTOR (ONLY USED WITH PRECOND. TYPE 1) =    0.10000E+01
 PARAMETER OF POLYNOMIAL PRECOND. = 2 (2) OR IS CALCULATED :        2
                         HEAD CHANGE CRITERION FOR CLOSURE =    0.10000E-02
                     RESIDUAL CHANGE CRITERION FOR CLOSURE =    0.10000E+01
            PCG HEAD AND RESIDUAL CHANGE PRINTOUT INTERVAL =        5
     PRINTING FROM SOLVER IS LIMITED(1) OR SUPPRESSED (>1) =        0
                            STEADY-STATE DAMPING PARAMETER =    0.10000E+01
                               TRANSIENT DAMPING PARAMETER =    0.10000E+01

 SWR -- SURFACE-WATER ROUTING PACKAGE,
 $Id: gwf2swr7.f 1.03 2013-09-24 15:00:00Z jdhughes $            
 INPUT READ FROM UNIT   61

 ...READING SWR1 PROCESS DATASET 1A
 SWR1 OPTIONS SPECIFIED IN DATASET 1B

 ...READING SWR1 PROCESS DATASET 1B


 SUMMARY OF SWR1 OPTIONS USED IN SIMULATION
 OPTION OPTION KEYWORD                       FILE UNIT
 ------ ----------------------------------- ----------
      8 USE_NONCONVERGENCE_CONTINUE               NONE
     14 USE_DIAGONAL_SCALING                      NONE
     23 USE_IMPLICIT_INVARIATE_QM                 NONE
 -----------------------------------------------------

 ...READING SWR1 PROCESS DATASET 2

 ...READING SWR1 PROCESS DATASET 3

 NUMBER OF REACHES                         =  121
 SURFACE WATER ONLY SIMULATION (>0=TRUE)   =    1
 LENGTH CONVERSION FACTOR                  =  1.0000000    
 TIME CONVERSION FACTOR                    =  1.0000000    
 MINIMUM GRADIENT FOR FLOW                 =  0.1000000E-11
 MAXIMUM DEPTH FOR SCALING REACH OUTFLOW   =  0.1000000E-01
 MINIMUM DEPTH FOR REACH OUTFLOW           =  0.1000000E-02
 DIFFUSIVE-WAVE APPROX. SPATIAL WEIGHTING  = CENTRAL             
 DEPTH SCALING                             = SIGMOID             
 TWO-DIMENSIONAL COORD.-INVARIANT APPROACH = IMPLICIT            
 MINIMUM ROUTING TIME STEP LENGTH          =  1.0000000    
 MAXIMUM ROUTING TIME STEP LENGTH          =  1.0000000    
 INITIAL ROUTING TIME STEP LENGTH          =  1.0000000    
 OUTPUT PRINT INCREMENT                    =  1.0000000    
 ADAPTIVE TIME STEP INCREMENT (RTMULT)     =  1.0000000    
 ADAPTIVE TIME STEP INCREMENT FREQUENCY    =    1
 MAXIMUM RAINFALL      PER ROUTING STEP    =   0.000000    
 MAXIMUM STAGE  CHANGE PER ROUTING STEP    =   0.000000    
 MAXIMUM INFLOW CHANGE PER ROUTING STEP    =   0.000000    

 CBC OUTPUT UNIT (ISWRCBC)                 =    0
 GROUP FLOW TERMS OUTPUT UNIT (ISWRPRGF)   = -101
 REACH STAGE OUTPUT UNIT (ISWRPSTG)        = -102
 REACH AQ-RCH FLOW OUTPUT UNIT (ISWRPQAQ)  =    0
 REACH LATERAL FLOW OUTPUT UNIT (ISWRPQM)  = -103
 STRUCTURE FLOW OUTPUT UNIT (ISWRPSTR)     =    0
 SUMMARY VELOCITY AND FROUDE INFORMATION   =    T


               --- SWR SOLVER PARAMETERS ---
 SOLVER = LU DECOMPOSITION USING CROUT’S ALGORITHM
 PRECONDITIONER                            = NONE                
 JACOBIAN SCALING                          = SYMMETRIC SCALING   
 MAXIMUM NUMBER OF OUTER ITERATIONS        = 1001
 MAXIMUM NUMBER OF INNER ITERATIONS        =    1
 NON-CONVERGENCE CONT.OF SWR AND MODFLOW   =    T
 MAXIMUM STAGE    TOLERANCE (TOLS)         =  0.1000000E-08
 MAXIMUM ROOT     TOLERANCE (TOLR)         =  0.1000000E-02
 INEXACT NEWTON APPROACH (INEXCTNWT)       =    F
 MAXIMUM AQ-RCH FLOW TOLERANCE (TOLA)      =  0.0000000E+00
 STEADY-STATE DAMPENING PARAMETER (DAMPSS) =  0.5000000E+00
 TRANSIENT DAMPENING PARAMETER (DAMPTR)    =  0.1000000E+01
 PSEUDO-TRANSIENT CONTINUATION APPROACH    =    F
 SOLVER OUTPUT FREQUENCY (IPRSWR)          =  999
 CONVERGENCE PRINTING FLAG (MUTSWR)        =    3
   0 - MAXIMUM RESIDUAL EACH SWR TIMESTEP
   1 - TOTAL NUMBER OF ITERATIONS EACH SWR TIMESTEP
   2 - NO PRINTING
   3 - PRINTING IF CONVERGENCE FAILS
 BACKTRACKING ALLOWED                      =    F


 SURFACE WATER ONLY SIMULATION
 SETTING MODFLOW IBOUND TO ZERO FOR ALL CELLS

 ...READING SWR1 PROCESS DATASET 4A

 ...READING SWR1 PROCESS DATASET 4B

 -----------------------------------------------------------
 FULL REACH CONNECTIVITY FOR EACH REACH

 -----------------------------------------------------------
 REACH  =     1
               -----------------CONNECTIONS-----------------
                            1              2
 -----------------------------------------------------------
 REACHES           1 TO     2     1 TO    12
 -----------------------------------------------------------

 -----------------------------------------------------------
 REACH  =     2
               -----------------CONNECTIONS-----------------
                            1              2              3
 -----------------------------------------------------------
 REACHES           2 TO     1     2 TO     3     2 TO    13
 -----------------------------------------------------------

 -----------------------------------------------------------
 REACH  =     3
               -----------------CONNECTIONS-----------------
                            1              2              3
 -----------------------------------------------------------
 REACHES           3 TO     2     3 TO     4     3 TO    14
 -----------------------------------------------------------

 -----------------------------------------------------------
 REACH  =     4
               -----------------CONNECTIONS-----------------
                            1              2              3
 -----------------------------------------------------------
 REACHES           4 TO     3     4 TO     5     4 TO    15
 -----------------------------------------------------------

 -----------------------------------------------------------
 REACH  =     5
               -----------------CONNECTIONS-----------------
                            1              2              3
 -----------------------------------------------------------
 REACHES           5 TO     4     5 TO     6     5 TO    16
 -----------------------------------------------------------

 -----------------------------------------------------------
 REACH  =     6
               -----------------CONNECTIONS-----------------
                            1              2              3
 -----------------------------------------------------------
 REACHES           6 TO     5     6 TO     7     6 TO    17
 -----------------------------------------------------------

 -----------------------------------------------------------
 REACH  =     7
               -----------------CONNECTIONS-----------------
                            1              2              3
 -----------------------------------------------------------
 REACHES           7 TO     6     7 TO     8     7 TO    18
 -----------------------------------------------------------

 -----------------------------------------------------------
 REACH  =     8
               -----------------CONNECTIONS-----------------
                            1              2              3
 -----------------------------------------------------------
 REACHES           8 TO     7     8 TO     9     8 TO    19
 -----------------------------------------------------------

 -----------------------------------------------------------
 REACH  =     9
               -----------------CONNECTIONS-----------------
                            1              2              3
 -----------------------------------------------------------
 REACHES           9 TO     8     9 TO    10     9 TO    20
 -----------------------------------------------------------

 -----------------------------------------------------------
 REACH  =    10
               -----------------CONNECTIONS-----------------
                            1              2              3
 -----------------------------------------------------------
 REACHES          10 TO     9    10 TO    11    10 TO    21
 -----------------------------------------------------------

 -----------------------------------------------------------
 REACH  =    11
               -----------------CONNECTIONS-----------------
                            1              2
 -----------------------------------------------------------
 REACHES          11 TO    10    11 TO    22
 -----------------------------------------------------------

 -----------------------------------------------------------
 REACH  =    12
               -----------------CONNECTIONS-----------------
                            1              2              3
 -----------------------------------------------------------
 REACHES          12 TO     1    12 TO    13    12 TO    23
 -----------------------------------------------------------

 -----------------------------------------------------------
 REACH  =    13
               -----------------CONNECTIONS-----------------
                            1              2              3
                            4
 -----------------------------------------------------------
 REACHES          13 TO     2    13 TO    12    13 TO    14
                  13 TO    24
 -----------------------------------------------------------

 -----------------------------------------------------------
 REACH  =    14
               -----------------CONNECTIONS-----------------
                            1              2              3
                            4
 -----------------------------------------------------------
 REACHES          14 TO     3    14 TO    13    14 TO    15
                  14 TO    25
 -----------------------------------------------------------

 -----------------------------------------------------------
 REACH  =    15
               -----------------CONNECTIONS-----------------
                            1              2              3
                            4
 -----------------------------------------------------------
 REACHES          15 TO     4    15 TO    14    15 TO    16
                  15 TO    26
 -----------------------------------------------------------

 -----------------------------------------------------------
 REACH  =    16
               -----------------CONNECTIONS-----------------
                            1              2              3
                            4
 -----------------------------------------------------------
 REACHES          16 TO     5    16 TO    15    16 TO    17
                  16 TO    27
 -----------------------------------------------------------

 -----------------------------------------------------------
 REACH  =    17
               -----------------CONNECTIONS-----------------
                            1              2              3
                            4
 -----------------------------------------------------------
 REACHES          17 TO     6    17 TO    16    17 TO    18
                  17 TO    28
 -----------------------------------------------------------

 -----------------------------------------------------------
 REACH  =    18
               -----------------CONNECTIONS-----------------
                            1              2              3
                            4
 -----------------------------------------------------------
 REACHES          18 TO     7    18 TO    17    18 TO    19
                  18 TO    29
 -----------------------------------------------------------

 -----------------------------------------------------------
 REACH  =    19
               -----------------CONNECTIONS-----------------
                            1              2              3
                            4
 -----------------------------------------------------------
 REACHES          19 TO     8    19 TO    18    19 TO    20
                  19 TO    30
 -----------------------------------------------------------

 -----------------------------------------------------------
 REACH  =    20
               -----------------CONNECTIONS-----------------
                            1              2              3
                            4
 -----------------------------------------------------------
 REACHES          20 TO     9    20 TO    19    20 TO    21
                  20 TO    31
 -----------------------------------------------------------

 -----------------------------------------------------------
 REACH  =    21
               -----------------CONNECTIONS-----------------
                            1              2              3
                            4
 -----------------------------------------------------------
 REACHES          21 TO    10    21 TO    20    21 TO    22
                  21 TO    32
 -----------------------------------------------------------

 -----------------------------------------------------------
 REACH  =    22
               -----------------CONNECTIONS-----------------
                            1              2              3
 -----------------------------------------------------------
 REACHES          22 TO    11    22 TO    21    22 TO    33
 -----------------------------------------------------------

 -----------------------------------------------------------
 REACH  =    23
               -----------------CONNECTIONS-----------------
                            1              2              3
 -----------------------------------------------------------
 REACHES          23 TO    12    23 TO    24    23 TO    34
 -----------------------------------------------------------

 -----------------------------------------------------------
 REACH  =    24
               -----------------CONNECTIONS-----------------
                            1              2              3
                            4
 -----------------------------------------------------------
 REACHES          24 TO    13    24 TO    23    24 TO    25
                  24 TO    35
 -----------------------------------------------------------

 -----------------------------------------------------------
 REACH  =    25
               -----------------CONNECTIONS-----------------
                            1              2              3
                            4
 -----------------------------------------------------------
 REACHES          25 TO    14    25 TO    24    25 TO    26
                  25 TO    36
 -----------------------------------------------------------

 -----------------------------------------------------------
 REACH  =    26
               -----------------CONNECTIONS-----------------
                            1              2              3
                            4
 -----------------------------------------------------------
 REACHES          26 TO    15    26 TO    25    26 TO    27
                  26 TO    37
 -----------------------------------------------------------

 -----------------------------------------------------------
 REACH  =    27
               -----------------CONNECTIONS-----------------
                            1              2              3
                            4
 -----------------------------------------------------------
 REACHES          27 TO    16    27 TO    26    27 TO    28
                  27 TO    38
 -----------------------------------------------------------

 -----------------------------------------------------------
 REACH  =    28
               -----------------CONNECTIONS-----------------
                            1              2              3
                            4
 -----------------------------------------------------------
 REACHES          28 TO    17    28 TO    27    28 TO    29
                  28 TO    39
 -----------------------------------------------------------

 -----------------------------------------------------------
 REACH  =    29
               -----------------CONNECTIONS-----------------
                            1              2              3
                            4
 -----------------------------------------------------------
 REACHES          29 TO    18    29 TO    28    29 TO    30
                  29 TO    40
 -----------------------------------------------------------

 -----------------------------------------------------------
 REACH  =    30
               -----------------CONNECTIONS-----------------
                            1              2              3
                            4
 -----------------------------------------------------------
 REACHES          30 TO    19    30 TO    29    30 TO    31
                  30 TO    41
 -----------------------------------------------------------

 -----------------------------------------------------------
 REACH  =    31
               -----------------CONNECTIONS-----------------
                            1              2              3
                            4
 -----------------------------------------------------------
 REACHES          31 TO    20    31 TO    30    31 TO    32
                  31 TO    42
 -----------------------------------------------------------

 -----------------------------------------------------------
 REACH  =    32
               -----------------CONNECTIONS-----------------
                            1              2              3
                            4
 -----------------------------------------------------------
 REACHES          32 TO    21    32 TO    31    32 TO    33
                  32 TO    43
 -----------------------------------------------------------

 -----------------------------------------------------------
 REACH  =    33
               -----------------CONNECTIONS-----------------
                            1              2              3
 -----------------------------------------------------------
 REACHES          33 TO    22    33 TO    32    33 TO    44
 -----------------------------------------------------------

 -----------------------------------------------------------
 REACH  =    34
               -----------------CONNECTIONS-----------------
                            1              2              3
 -----------------------------------------------------------
 REACHES          34 TO    23    34 TO    35    34 TO    45
 -----------------------------------------------------------

 -----------------------------------------------------------
 REACH  =    35
               -----------------CONNECTIONS-----------------
                            1              2              3
                            4
 -----------------------------------------------------------
 REACHES          35 TO    24    35 TO    34    35 TO    36
                  35 TO    46
 -----------------------------------------------------------

 -----------------------------------------------------------
 REACH  =    36
               -----------------CONNECTIONS-----------------
                            1              2              3
                            4
 -----------------------------------------------------------
 REACHES          36 TO    25    36 TO    35    36 TO    37
                  36 TO    47
 -----------------------------------------------------------

 -----------------------------------------------------------
 REACH  =    37
               -----------------CONNECTIONS-----------------
                            1              2              3
                            4
 -----------------------------------------------------------
 REACHES          37 TO    26    37 TO    36    37 TO    38
                  37 TO    48
 -----------------------------------------------------------

 -----------------------------------------------------------
 REACH  =    38
               -----------------CONNECTIONS-----------------
                            1              2              3
                            4
 -----------------------------------------------------------
 REACHES          38 TO    27    38 TO    37    38 TO    39
                  38 TO    49
 -----------------------------------------------------------

 -----------------------------------------------------------
 REACH  =    39
               -----------------CONNECTIONS-----------------
                            1              2              3
                            4
 -----------------------------------------------------------
 REACHES          39 TO    28    39 TO    38    39 TO    40
                  39 TO    50
 -----------------------------------------------------------

 -----------------------------------------------------------
 REACH  =    40
               -----------------CONNECTIONS-----------------
                            1              2              3
                            4
 -----------------------------------------------------------
 REACHES          40 TO    29    40 TO    39    40 TO    41
                  40 TO    51
 -----------------------------------------------------------

 -----------------------------------------------------------
 REACH  =    41
               -----------------CONNECTIONS-----------------
                            1              2              3
                            4
 -----------------------------------------------------------
 REACHES          41 TO    30    41 TO    40    41 TO    42
                  41 TO    52
 -----------------------------------------------------------

 -----------------------------------------------------------
 REACH  =    42
               -----------------CONNECTIONS-----------------
                            1              2              3
                            4
 -----------------------------------------------------------
 REACHES          42 TO    31    42 TO    41    42 TO    43
                  42 TO    53
 -----------------------------------------------------------

 -----------------------------------------------------------
 REACH  =    43
               -----------------CONNECTIONS-----------------
                            1              2              3
                            4
 -----------------------------------------------------------
 REACHES          43 TO    32    43 TO    42    43 TO    44
                  43 TO    54
 -----------------------------------------------------------

 -----------------------------------------------------------
 REACH  =    44
               -----------------CONNECTIONS-----------------
                            1              2              3
 -----------------------------------------------------------
 REACHES          44 TO    33    44 TO    43    44 TO    55
 -----------------------------------------------------------

 -----------------------------------------------------------
 REACH  =    45
               -----------------CONNECTIONS-----------------
                            1              2              3
 -----------------------------------------------------------
 REACHES          45 TO    34    45 TO    46    45 TO    56
 -----------------------------------------------------------

 -----------------------------------------------------------
 REACH  =    46
               -----------------CONNECTIONS-----------------
                            1              2              3
                            4
 -----------------------------------------------------------
 REACHES          46 TO    35    46 TO    45    46 TO    47
                  46 TO    57
 -----------------------------------------------------------

 -----------------------------------------------------------
 REACH  =    47
               -----------------CONNECTIONS-----------------
                            1              2              3
                            4
 -----------------------------------------------------------
 REACHES          47 TO    36    47 TO    46    47 TO    48
                  47 TO    58
 -----------------------------------------------------------

 -----------------------------------------------------------
 REACH  =    48
               -----------------CONNECTIONS-----------------
                            1              2              3
                            4
 -----------------------------------------------------------
 REACHES          48 TO    37    48 TO    47    48 TO    49
                  48 TO    59
 -----------------------------------------------------------
