# MODFLOW2000 Discretization File
 1  11  11  1  1  2
 0
         0   500.000(10E12.4)                    0     DELTA-X or C
         0   500.000(10E12.4)                    0     DELTA-Y or R
        29     1.000(11e6.2)                    -1     TOP of Model
  1.05  1.05  1.05  1.05  1.05  1.05  1.05  1.05  1.05  1.05  1.05
  0.95  0.95  0.95  0.95  0.95  0.95  0.95  0.95  0.95  0.95  0.95
  0.85  0.85  0.85  0.85  0.85  0.85  0.85  0.85  0.85  0.85  0.85
  0.75  0.75  0.75  0.75  0.75  0.75  0.75  0.75  0.75  0.75  0.75
  0.65  0.65  0.65  0.65  0.65  0.65  0.65  0.65  0.65  0.65  0.65
  0.55  0.55  0.55  0.55  0.55  0.55  0.55  0.55  0.55  0.55  0.55
  0.45  0.45  0.45  0.45  0.45  0.45  0.45  0.45  0.45  0.45  0.45
  0.35  0.35  0.35  0.35  0.35  0.35  0.35  0.35  0.35  0.35  0.35
  0.25  0.25  0.25  0.25  0.25  0.25  0.25  0.25  0.25  0.25  0.25
  0.15  0.15  0.15  0.15  0.15  0.15  0.15  0.15  0.15  0.15  0.15
  0.05  0.05  0.05  0.05  0.05  0.05  0.05  0.05  0.05  0.05  0.05
         0    -5.000(10e12.4)                   -1     BOTTOM of Layer   1
       1.0    1  1.000000  SS
