                                  MODFLOW-NWT-SWR1 
      U.S. GEOLOGICAL SURVEY MODULAR FINITE-DIFFERENCE GROUNDWATER-FLOW MODEL
                            VERSION 1.0.9 07/01/2014
                    BASED ON MODFLOW-2005 VERSION 1.11.00 08/30/2013

 LIST FILE: VCatch.lst
                         UNIT    7

 OPENING VCatch.bas
 FILE TYPE:BAS6   UNIT    1   STATUS:OLD    
 FORMAT:FORMATTED              ACCESS:SEQUENTIAL          

 OPENING VCatch.dis
 FILE TYPE:DIS   UNIT   29   STATUS:OLD    
 FORMAT:FORMATTED              ACCESS:SEQUENTIAL          

 OPENING VCatch.lpf
 FILE TYPE:LPF   UNIT   11   STATUS:OLD    
 FORMAT:FORMATTED              ACCESS:SEQUENTIAL          

 OPENING VCatch.oc
 FILE TYPE:OC   UNIT   22   STATUS:OLD    
 FORMAT:FORMATTED              ACCESS:SEQUENTIAL          

 OPENING VCatch.pcg
 FILE TYPE:PCG   UNIT   19   STATUS:OLD    
 FORMAT:FORMATTED              ACCESS:SEQUENTIAL          

 OPENING VCatch.swr
 FILE TYPE:SWR   UNIT   61   STATUS:OLD    
 FORMAT:FORMATTED              ACCESS:SEQUENTIAL          

 OPENING rainfall.ref
 FILE TYPE:DATA   UNIT  201   STATUS:UNKNOWN
 FORMAT:FORMATTED              ACCESS:SEQUENTIAL          

 OPENING VCatch.flow
 FILE TYPE:DATA(BINARY)   UNIT  101   STATUS:UNKNOWN
 FORMAT:BINARY                 ACCESS:SEQUENTIAL          

 OPENING VCatch.stg
 FILE TYPE:DATA(BINARY)   UNIT  102   STATUS:UNKNOWN
 FORMAT:BINARY                 ACCESS:SEQUENTIAL          

 BAS -- BASIC PACKAGE, VERSION 7, 5/2/2005 INPUT READ FROM UNIT    1
 
 MODFLOW was compiled using mixed precision
 Precision of REAL variables:           6
 Precision of DOUBLE PRECISION variables:          15

 DISCRETIZATION INPUT DATA READ FROM UNIT   29
 # MODFLOW-2005 Discretization File
    1 LAYERS        20 ROWS        17 COLUMNS
    1 STRESS PERIOD(S) IN SIMULATION
 MODEL TIME UNIT IS SECONDS
 MODEL LENGTH UNIT IS METERS
  Confining bed flag for each layer:
   0



                               DELR
 READING ON UNIT   29 WITH FORMAT: (FREE)              
   50.000       50.000       50.000       50.000       50.000       50.000       50.000       50.000       50.000       50.000    
   50.000       50.000       50.000       50.000       50.000       50.000      10.0000    

                     DELC =   50.0000    

 OPENING FILE ON UNIT   99:
 tilted_elev.ref                                                                                                                                                                                         



           TOP ELEVATION OF LAYER 1
 READING ON UNIT   99 WITH FORMAT: (FREE)              

   MODEL LAYER BOTTOM EL. =  -50.0000     FOR LAYER   1


 STRESS PERIOD     LENGTH       TIME STEPS     MULTIPLIER FOR DELT    SS FLAG
 ----------------------------------------------------------------------------
        1         10800.00        108                    1.000         TR

 TRANSIENT SIMULATION



 
 # MODFLOW2005 Basic Package                                                     
 #MODFLOW Data Set Created by Groundwater Vistas                                 
 #

           BOUNDARY ARRAY =              1 FOR LAYER   1

 AQUIFER HEAD WILL BE SET TO   999.00     AT ALL NO-FLOW NODES (IBOUND=0).

             INITIAL HEAD =   0.00000     FOR LAYER   1

 OUTPUT CONTROL IS SPECIFIED ONLY AT TIME STEPS FOR WHICH OUTPUT IS DESIRED
 HEAD PRINT FORMAT CODE IS   0    DRAWDOWN PRINT FORMAT CODE IS   0
 HEADS WILL BE SAVED ON UNIT    0    DRAWDOWNS WILL BE SAVED ON UNIT    0

 LPF -- LAYER-PROPERTY FLOW PACKAGE, VERSION 7, 5/2/2005
         INPUT READ FROM UNIT   11
 # MODFLOW2000 Layer Property Flow (LPF) Package
 HEAD AT CELLS THAT CONVERT TO DRY= -1.00000E+30
 No named parameters

   LAYER FLAGS:
 LAYER       LAYTYP        LAYAVG         CHANI        LAYVKA        LAYWET
 ---------------------------------------------------------------------------
    1             1             0     1.000E+00             0             0

   INTERPRETATION OF LAYER FLAGS:
                        INTERBLOCK     HORIZONTAL    DATA IN
         LAYER TYPE   TRANSMISSIVITY   ANISOTROPY   ARRAY VKA   WETTABILITY
 LAYER      (LAYTYP)      (LAYAVG)       (CHANI)      (LAYVKA)      (LAYWET)
 ---------------------------------------------------------------------------
    1   CONVERTIBLE      HARMONIC     1.000E+00    VERTICAL K  NON-WETTABLE

 WETTING CAPABILITY IS NOT ACTIVE IN ANY LAYER

    HYD. COND. ALONG ROWS =   5.00000     FOR LAYER   1

      VERTICAL HYD. COND. =   5.00000     FOR LAYER   1

         SPECIFIC STORAGE =  1.000000     FOR LAYER   1

           SPECIFIC YIELD =  0.200000     FOR LAYER   1

 PCG -- CONJUGATE-GRADIENT SOLUTION PACKAGE, VERSION 7, 5/2/2005
 MAXIMUM OF    100 CALLS OF SOLUTION ROUTINE
 MAXIMUM OF     25 INTERNAL ITERATIONS PER CALL TO SOLUTION ROUTINE
 MATRIX PRECONDITIONING TYPE :    1
 IHCOFADD option -- When an active cell is surrounded by dry cells, convert
 the cell to dry only if storage and head-dependent boundary flow are 0.



                                    SOLUTION BY THE CONJUGATE-GRADIENT METHOD
                                   -------------------------------------------
                    MAXIMUM NUMBER OF CALLS TO PCG ROUTINE =      100
                        MAXIMUM ITERATIONS PER CALL TO PCG =       25
                               MATRIX PRECONDITIONING TYPE =        1
        RELAXATION FACTOR (ONLY USED WITH PRECOND. TYPE 1) =    0.10000E+01
 PARAMETER OF POLYNOMIAL PRECOND. = 2 (2) OR IS CALCULATED :        2
                         HEAD CHANGE CRITERION FOR CLOSURE =    0.10000E-02
                     RESIDUAL CHANGE CRITERION FOR CLOSURE =    0.10000E+01
            PCG HEAD AND RESIDUAL CHANGE PRINTOUT INTERVAL =        5
     PRINTING FROM SOLVER IS LIMITED(1) OR SUPPRESSED (>1) =        0
                            STEADY-STATE DAMPING PARAMETER =    0.10000E+01
                               TRANSIENT DAMPING PARAMETER =    0.10000E+01

 SWR -- SURFACE-WATER ROUTING PACKAGE,
 $Id: gwf2swr7.f 1.03 2013-09-24 15:00:00Z jdhughes $            
 INPUT READ FROM UNIT   61

 ...READING SWR1 PROCESS DATASET 1A
 SWR1 OPTIONS SPECIFIED IN DATASET 1B

 ...READING SWR1 PROCESS DATASET 1B


 SUMMARY OF SWR1 OPTIONS USED IN SIMULATION
 OPTION OPTION KEYWORD                       FILE UNIT
 ------ ----------------------------------- ----------
      1 PRINT_SWR_TO_SCREEN                       NONE
      6 SAVE_AVERAGE_RESULTS                      NONE
      7 USE_TABFILES                              NONE
      8 USE_NONCONVERGENCE_CONTINUE               NONE
      9 USE_UPSTREAM_WEIGHTING                    NONE
     18 USE_STAGE_TRANSFORM                       NONE
 -----------------------------------------------------

 ...READING SWR1 PROCESS DATASET 2

 ...READING SWR1 PROCESS DATASET 3

 NUMBER OF REACHES                         =  340
 SURFACE WATER ONLY SIMULATION (>0=TRUE)   =    1
 LENGTH CONVERSION FACTOR                  =  1.0000000    
 TIME CONVERSION FACTOR                    =  1.0000000    
 MINIMUM GRADIENT FOR FLOW                 =   0.000000    
 MAXIMUM DEPTH FOR SCALING REACH OUTFLOW   =   0.000000    
 MINIMUM DEPTH FOR REACH OUTFLOW           =   0.000000    
 DIFFUSIVE-WAVE APPROX. SPATIAL WEIGHTING  = UPSTREAM            
 DEPTH SCALING                             = NONE                
 TWO-DIMENSIONAL COORD.-INVARIANT APPROACH = EXPLICIT            
 MINIMUM ROUTING TIME STEP LENGTH          =  10.000000    
 MAXIMUM ROUTING TIME STEP LENGTH          =  10.000000    
 INITIAL ROUTING TIME STEP LENGTH          =  10.000000    
 OUTPUT PRINT INCREMENT                    =  10.000000    
 ADAPTIVE TIME STEP INCREMENT (RTMULT)     =   2.000000    
 ADAPTIVE TIME STEP INCREMENT FREQUENCY    =   10
 MAXIMUM RAINFALL      PER ROUTING STEP    =   0.000000    
 MAXIMUM STAGE  CHANGE PER ROUTING STEP    =   0.000000    
 MAXIMUM INFLOW CHANGE PER ROUTING STEP    =   0.000000    

 CBC OUTPUT UNIT (ISWRCBC)                 =    0
 GROUP FLOW TERMS OUTPUT UNIT (ISWRPRGF)   = -101
 REACH STAGE OUTPUT UNIT (ISWRPSTG)        = -102
 REACH AQ-RCH FLOW OUTPUT UNIT (ISWRPQAQ)  =    0
 REACH LATERAL FLOW OUTPUT UNIT (ISWRPQM)  =    0
 STRUCTURE FLOW OUTPUT UNIT (ISWRPSTR)     =    0
 SUMMARY VELOCITY AND FROUDE INFORMATION   =    T


               --- SWR SOLVER PARAMETERS ---
 SOLVER = BICONJUGATE GRADIENT STABILIZED         
 PRECONDITIONER                            = INCOMPLETE LU THRES.
 JACOBIAN SCALING                          = NO SCALING          
 MAXIMUM NUMBER OF OUTER ITERATIONS        =   51
 MAXIMUM NUMBER OF INNER ITERATIONS        =  100
 NON-CONVERGENCE CONT.OF SWR AND MODFLOW   =    T
 NUMBER OF LEVELS FOR ILUT (NLEVELS)       =    7
 DROP TOLERANCE FOR ILUT (DROPTOL)         =  0.1000000E-03
 MAXIMUM STAGE    TOLERANCE (TOLS)         =  0.1000000E-08
 MAXIMUM ROOT     TOLERANCE (TOLR)         =  0.1000000E-02
 INEXACT NEWTON APPROACH (INEXCTNWT)       =    F
 MAXIMUM AQ-RCH FLOW TOLERANCE (TOLA)      =  0.0000000E+00
 STEADY-STATE DAMPENING PARAMETER (DAMPSS) =  0.1000000E+01
 TRANSIENT DAMPENING PARAMETER (DAMPTR)    =  0.1000000E+01
 PSEUDO-TRANSIENT CONTINUATION APPROACH    =    F
 SOLVER OUTPUT FREQUENCY (IPRSWR)          =  999
 CONVERGENCE PRINTING FLAG (MUTSWR)        =    3
   0 - MAXIMUM RESIDUAL EACH SWR TIMESTEP
   1 - TOTAL NUMBER OF ITERATIONS EACH SWR TIMESTEP
   2 - NO PRINTING
   3 - PRINTING IF CONVERGENCE FAILS
 BACKTRACKING ALLOWED                      =    T
 MAXIMUM BACKTRACKING ITERATIONS (IBT)     =   10
 BACKTRACKING OUTPUT FREQUENCY  (IBTPRT)   =    1


 SURFACE WATER ONLY SIMULATION
 SETTING MODFLOW IBOUND TO ZERO FOR ALL CELLS

 ...READING SWR1 PROCESS DATASET 4A

 ...READING SWR1 PROCESS DATASET 4B

 -----------------------------------------------------------
 FULL REACH CONNECTIVITY FOR EACH REACH

 -----------------------------------------------------------
 REACH  =     1
               -----------------CONNECTIONS-----------------
                            1              2
 -----------------------------------------------------------
 REACHES           1 TO     2     1 TO    21
 -----------------------------------------------------------

 -----------------------------------------------------------
 REACH  =     2
               -----------------CONNECTIONS-----------------
                            1              2              3
 -----------------------------------------------------------
 REACHES           2 TO     1     2 TO     3     2 TO    22
 -----------------------------------------------------------

 -----------------------------------------------------------
 REACH  =     3
               -----------------CONNECTIONS-----------------
                            1              2              3
 -----------------------------------------------------------
 REACHES           3 TO     2     3 TO     4     3 TO    23
 -----------------------------------------------------------

 -----------------------------------------------------------
 REACH  =     4
               -----------------CONNECTIONS-----------------
                            1              2              3
 -----------------------------------------------------------
 REACHES           4 TO     3     4 TO     5     4 TO    24
 -----------------------------------------------------------

 -----------------------------------------------------------
 REACH  =     5
               -----------------CONNECTIONS-----------------
                            1              2              3
 -----------------------------------------------------------
 REACHES           5 TO     4     5 TO     6     5 TO    25
 -----------------------------------------------------------

 -----------------------------------------------------------
 REACH  =     6
               -----------------CONNECTIONS-----------------
                            1              2              3
 -----------------------------------------------------------
 REACHES           6 TO     5     6 TO     7     6 TO    26
 -----------------------------------------------------------

 -----------------------------------------------------------
 REACH  =     7
               -----------------CONNECTIONS-----------------
                            1              2              3
 -----------------------------------------------------------
 REACHES           7 TO     6     7 TO     8     7 TO    27
 -----------------------------------------------------------

 -----------------------------------------------------------
 REACH  =     8
               -----------------CONNECTIONS-----------------
                            1              2              3
 -----------------------------------------------------------
 REACHES           8 TO     7     8 TO     9     8 TO    28
 -----------------------------------------------------------

 -----------------------------------------------------------
 REACH  =     9
               -----------------CONNECTIONS-----------------
                            1              2              3
 -----------------------------------------------------------
 REACHES           9 TO     8     9 TO    10     9 TO    29
 -----------------------------------------------------------

 -----------------------------------------------------------
 REACH  =    10
               -----------------CONNECTIONS-----------------
                            1              2              3
 -----------------------------------------------------------
 REACHES          10 TO     9    10 TO    11    10 TO    30
 -----------------------------------------------------------

 -----------------------------------------------------------
 REACH  =    11
               -----------------CONNECTIONS-----------------
                            1              2              3
 -----------------------------------------------------------
 REACHES          11 TO    10    11 TO    12    11 TO    31
 -----------------------------------------------------------

 -----------------------------------------------------------
 REACH  =    12
               -----------------CONNECTIONS-----------------
                            1              2              3
 -----------------------------------------------------------
 REACHES          12 TO    11    12 TO    13    12 TO    32
 -----------------------------------------------------------

 -----------------------------------------------------------
 REACH  =    13
               -----------------CONNECTIONS-----------------
                            1              2              3
 -----------------------------------------------------------
 REACHES          13 TO    12    13 TO    14    13 TO    33
 -----------------------------------------------------------

 -----------------------------------------------------------
 REACH  =    14
               -----------------CONNECTIONS-----------------
                            1              2              3
 -----------------------------------------------------------
 REACHES          14 TO    13    14 TO    15    14 TO    34
 -----------------------------------------------------------

 -----------------------------------------------------------
 REACH  =    15
               -----------------CONNECTIONS-----------------
                            1              2              3
 -----------------------------------------------------------
 REACHES          15 TO    14    15 TO    16    15 TO    35
 -----------------------------------------------------------

 -----------------------------------------------------------
 REACH  =    16
               -----------------CONNECTIONS-----------------
                            1              2              3
 -----------------------------------------------------------
 REACHES          16 TO    15    16 TO    17    16 TO    36
 -----------------------------------------------------------

 -----------------------------------------------------------
 REACH  =    17
               -----------------CONNECTIONS-----------------
                            1              2              3
 -----------------------------------------------------------
 REACHES          17 TO    16    17 TO    18    17 TO    37
 -----------------------------------------------------------

 -----------------------------------------------------------
 REACH  =    18
               -----------------CONNECTIONS-----------------
                            1              2              3
 -----------------------------------------------------------
 REACHES          18 TO    17    18 TO    19    18 TO    38
 -----------------------------------------------------------

 -----------------------------------------------------------
 REACH  =    19
               -----------------CONNECTIONS-----------------
                            1              2              3
 -----------------------------------------------------------
 REACHES          19 TO    18    19 TO    20    19 TO    39
 -----------------------------------------------------------

 -----------------------------------------------------------
 REACH  =    20
               -----------------CONNECTIONS-----------------
                            1              2
 -----------------------------------------------------------
 REACHES          20 TO    19    20 TO    40
 -----------------------------------------------------------

 -----------------------------------------------------------
 REACH  =    21
               -----------------CONNECTIONS-----------------
                            1              2              3
 -----------------------------------------------------------
 REACHES          21 TO     1    21 TO    22    21 TO    41
 -----------------------------------------------------------

 -----------------------------------------------------------
 REACH  =    22
               -----------------CONNECTIONS-----------------
                            1              2              3
                            4
 -----------------------------------------------------------
 REACHES          22 TO     2    22 TO    21    22 TO    23
                  22 TO    42
 -----------------------------------------------------------

 -----------------------------------------------------------
 REACH  =    23
               -----------------CONNECTIONS-----------------
                            1              2              3
                            4
 -----------------------------------------------------------
 REACHES          23 TO     3    23 TO    22    23 TO    24
                  23 TO    43
 -----------------------------------------------------------

 -----------------------------------------------------------
 REACH  =    24
               -----------------CONNECTIONS-----------------
                            1              2              3
                            4
 -----------------------------------------------------------
 REACHES          24 TO     4    24 TO    23    24 TO    25
                  24 TO    44
 -----------------------------------------------------------

 -----------------------------------------------------------
 REACH  =    25
               -----------------CONNECTIONS-----------------
                            1              2              3
                            4
 -----------------------------------------------------------
 REACHES          25 TO     5    25 TO    24    25 TO    26
                  25 TO    45
 -----------------------------------------------------------

 -----------------------------------------------------------
 REACH  =    26
               -----------------CONNECTIONS-----------------
                            1              2              3
                            4
 -----------------------------------------------------------
 REACHES          26 TO     6    26 TO    25    26 TO    27
                  26 TO    46
 -----------------------------------------------------------

 -----------------------------------------------------------
 REACH  =    27
               -----------------CONNECTIONS-----------------
                            1              2              3
                            4
 -----------------------------------------------------------
 REACHES          27 TO     7    27 TO    26    27 TO    28
                  27 TO    47
 -----------------------------------------------------------

 -----------------------------------------------------------
 REACH  =    28
               -----------------CONNECTIONS-----------------
                            1              2              3
                            4
 -----------------------------------------------------------
 REACHES          28 TO     8    28 TO    27    28 TO    29
                  28 TO    48
 -----------------------------------------------------------

 -----------------------------------------------------------
 REACH  =    29
               -----------------CONNECTIONS-----------------
                            1              2              3
                            4
 -----------------------------------------------------------
 REACHES          29 TO     9    29 TO    28    29 TO    30
                  29 TO    49
 -----------------------------------------------------------

 -----------------------------------------------------------
 REACH  =    30
               -----------------CONNECTIONS-----------------
                            1              2              3
                            4
 -----------------------------------------------------------
 REACHES          30 TO    10    30 TO    29    30 TO    31
                  30 TO    50
 -----------------------------------------------------------

 -----------------------------------------------------------
 REACH  =    31
               -----------------CONNECTIONS-----------------
                            1              2              3
                            4
 -----------------------------------------------------------
 REACHES          31 TO    11    31 TO    30    31 TO    32
                  31 TO    51
 -----------------------------------------------------------

 -----------------------------------------------------------
 REACH  =    32
               -----------------CONNECTIONS-----------------
                            1              2              3
                            4
 -----------------------------------------------------------
 REACHES          32 TO    12    32 TO    31    32 TO    33
                  32 TO    52
 -----------------------------------------------------------

 -----------------------------------------------------------
 REACH  =    33
               -----------------CONNECTIONS-----------------
                            1              2              3
                            4
 -----------------------------------------------------------
 REACHES          33 TO    13    33 TO    32    33 TO    34
                  33 TO    53
 -----------------------------------------------------------

 -----------------------------------------------------------
 REACH  =    34
               -----------------CONNECTIONS-----------------
                            1              2              3
                            4
 -----------------------------------------------------------
 REACHES          34 TO    14    34 TO    33    34 TO    35
                  34 TO    54
 -----------------------------------------------------------

 -----------------------------------------------------------
 REACH  =    35
               -----------------CONNECTIONS-----------------
                            1              2              3
                            4
 -----------------------------------------------------------
 REACHES          35 TO    15    35 TO    34    35 TO    36
                  35 TO    55
 -----------------------------------------------------------

 -----------------------------------------------------------
 REACH  =    36
               -----------------CONNECTIONS-----------------
                            1              2              3
                            4
 -----------------------------------------------------------
 REACHES          36 TO    16    36 TO    35    36 TO    37
                  36 TO    56
 -----------------------------------------------------------

 -----------------------------------------------------------
 REACH  =    37
               -----------------CONNECTIONS-----------------
                            1              2              3
                            4
 -----------------------------------------------------------
 REACHES          37 TO    17    37 TO    36    37 TO    38
                  37 TO    57
 -----------------------------------------------------------

 -----------------------------------------------------------
 REACH  =    38
               -----------------CONNECTIONS-----------------
                            1              2              3
                            4
 -----------------------------------------------------------
 REACHES          38 TO    18    38 TO    37    38 TO    39
                  38 TO    58
 -----------------------------------------------------------

 -----------------------------------------------------------
 REACH  =    39
               -----------------CONNECTIONS-----------------
                            1              2              3
                            4
 -----------------------------------------------------------
 REACHES          39 TO    19    39 TO    38    39 TO    40
                  39 TO    59
 -----------------------------------------------------------

 -----------------------------------------------------------
 REACH  =    40
               -----------------CONNECTIONS-----------------
                            1              2              3
 -----------------------------------------------------------
 REACHES          40 TO    20    40 TO    39    40 TO    60
 -----------------------------------------------------------

 -----------------------------------------------------------
 REACH  =    41
               -----------------CONNECTIONS-----------------
                            1              2              3
 -----------------------------------------------------------
 REACHES          41 TO    21    41 TO    42    41 TO    61
 -----------------------------------------------------------

 -----------------------------------------------------------
 REACH  =    42
               -----------------CONNECTIONS-----------------
                            1              2              3
                            4
 -----------------------------------------------------------
 REACHES          42 TO    22    42 TO    41    42 TO    43
                  42 TO    62
 -----------------------------------------------------------

 -----------------------------------------------------------
 REACH  =    43
               -----------------CONNECTIONS-----------------
                            1              2              3
                            4
 -----------------------------------------------------------
 REACHES          43 TO    23    43 TO    42    43 TO    44
                  43 TO    63
 -----------------------------------------------------------

 -----------------------------------------------------------
 REACH  =    44
               -----------------CONNECTIONS-----------------
                            1              2              3
                            4
 -----------------------------------------------------------
 REACHES          44 TO    24    44 TO    43    44 TO    45
                  44 TO    64
 -----------------------------------------------------------

 -----------------------------------------------------------
 REACH  =    45
               -----------------CONNECTIONS-----------------
                            1              2              3
                            4
 -----------------------------------------------------------
 REACHES          45 TO    25    45 TO    44    45 TO    46
                  45 TO    65
 -----------------------------------------------------------

 -----------------------------------------------------------
 REACH  =    46
               -----------------CONNECTIONS-----------------
                            1              2              3
                            4
 -----------------------------------------------------------
 REACHES          46 TO    26    46 TO    45    46 TO    47
                  46 TO    66
 -----------------------------------------------------------

 -----------------------------------------------------------
 REACH  =    47
               -----------------CONNECTIONS-----------------
                            1              2              3
                            4
 -----------------------------------------------------------
 REACHES          47 TO    27    47 TO    46    47 TO    48
                  47 TO    67
 -----------------------------------------------------------

 -----------------------------------------------------------
 REACH  =    48
               -----------------CONNECTIONS-----------------
                            1              2              3
                            4
 -----------------------------------------------------------
 REACHES          48 TO    28    48 TO    47    48 TO    49
                  48 TO    68
 -----------------------------------------------------------

 -----------------------------------------------------------
 REACH  =    49
               -----------------CONNECTIONS-----------------
                            1              2              3
                            4
 -----------------------------------------------------------
 REACHES          49 TO    29    49 TO    48    49 TO    50
                  49 TO    69