# Salt Water Intrusion (SWI2) package file for MODFLOW-2005, generated by Flopy.
# Dataset 1
         1         1         0        55        53         0
# Dataset 2a
         2         0         3
# Dataset 2b
       100        20         1         1e-06         0.003             1         2             1             1
# Dataset 3a
         0.025         0.025
# Dataset 4
INTERNAL               1  (2G15.6)  -1 #nu                            
   0.000000E+00   2.500000E-02
# Dataset 5
CONSTANT   -1.000000E+02                           #zeta_1 Layer 1                
CONSTANT   -1.000000E+02                           #zeta_1 Layer 2                
CONSTANT   -1.000000E+02                           #zeta_1 Layer 3                
CONSTANT   -1.000000E+02                           #zeta_1 Layer 4                
CONSTANT   -1.000000E+02                           #zeta_1 Layer 5                
CONSTANT   -1.000000E+02                           #zeta_1 Layer 6                
# Dataset 6
INTERNAL               1 (113G15.6)  -1 #ssz Layer 1                   
   1.570796E+01   4.712389E+01   7.853982E+01   1.099557E+02   1.413717E+02   1.727876E+02   2.042035E+02   2.356194E+02   2.670354E+02   2.984513E+02   3.298672E+02   3.612831E+02   3.926991E+02   4.241150E+02   4.555309E+02   4.869469E+02   5.183628E+02   5.497787E+02   5.811946E+02   6.126106E+02   6.440265E+02   6.754424E+02   7.068583E+02   7.382743E+02   7.696902E+02   8.011061E+02   8.325220E+02   8.639380E+02   8.953539E+02   9.267698E+02   9.581857E+02   9.896017E+02   1.021018E+03   1.052434E+03   1.083849E+03   1.115265E+03   1.146681E+03   1.178097E+03   1.209513E+03   1.240929E+03   1.272345E+03   1.303761E+03   1.335177E+03   1.366593E+03   1.398009E+03   1.429425E+03   1.460841E+03   1.492256E+03   1.523672E+03   1.555088E+03   1.586504E+03   1.617920E+03   1.649336E+03   1.680752E+03   1.712168E+03   1.743584E+03   1.775000E+03   1.806416E+03   1.837832E+03   1.869248E+03   1.900664E+03   1.932079E+03   1.963495E+03   1.994911E+03   2.026327E+03   2.057743E+03   2.089159E+03   2.120575E+03   2.151991E+03   2.183407E+03   2.214823E+03   2.246239E+03   2.277655E+03   2.309071E+03   2.340487E+03   2.371902E+03   2.403318E+03   2.434734E+03   2.466150E+03   2.497566E+03   2.528982E+03   2.560398E+03   2.591814E+03   2.623230E+03   2.654646E+03   2.686062E+03   2.717478E+03   2.748894E+03   2.780310E+03   2.811725E+03   2.843141E+03   2.874557E+03   2.905973E+03   2.937389E+03   2.968805E+03   3.000221E+03   3.031637E+03   3.063053E+03   3.094469E+03   3.125885E+03   3.157301E+03   3.188717E+03   3.220133E+03   3.251548E+03   3.282964E+03   3.314380E+03   3.345796E+03   3.377212E+03   3.408628E+03   3.440044E+03   3.471460E+03   3.502876E+03   3.534292E+03
INTERNAL               1 (113G15.6)  -1 #ssz Layer 2                   
   1.570796E+01   4.712389E+01   7.853982E+01   1.099557E+02   1.413717E+02   1.727876E+02   2.042035E+02   2.356194E+02   2.670354E+02   2.984513E+02   3.298672E+02   3.612831E+02   3.926991E+02   4.241150E+02   4.555309E+02   4.869469E+02   5.183628E+02   5.497787E+02   5.811946E+02   6.126106E+02   6.440265E+02   6.754424E+02   7.068583E+02   7.382743E+02   7.696902E+02   8.011061E+02   8.325220E+02   8.639380E+02   8.953539E+02   9.267698E+02   9.581857E+02   9.896017E+02   1.021018E+03   1.052434E+03   1.083849E+03   1.115265E+03   1.146681E+03   1.178097E+03   1.209513E+03   1.240929E+03   1.272345E+03   1.303761E+03   1.335177E+03   1.366593E+03   1.398009E+03   1.429425E+03   1.460841E+03   1.492256E+03   1.523672E+03   1.555088E+03   1.586504E+03   1.617920E+03   1.649336E+03   1.680752E+03   1.712168E+03   1.743584E+03   1.775000E+03   1.806416E+03   1.837832E+03   1.869248E+03   1.900664E+03   1.932079E+03   1.963495E+03   1.994911E+03   2.026327E+03   2.057743E+03   2.089159E+03   2.120575E+03   2.151991E+03   2.183407E+03   2.214823E+03   2.246239E+03   2.277655E+03   2.309071E+03   2.340487E+03   2.371902E+03   2.403318E+03   2.434734E+03   2.466150E+03   2.497566E+03   2.528982E+03   2.560398E+03   2.591814E+03   2.623230E+03   2.654646E+03   2.686062E+03   2.717478E+03   2.748894E+03   2.780310E+03   2.811725E+03   2.843141E+03   2.874557E+03   2.905973E+03   2.937389E+03   2.968805E+03   3.000221E+03   3.031637E+03   3.063053E+03   3.094469E+03   3.125885E+03   3.157301E+03   3.188717E+03   3.220133E+03   3.251548E+03   3.282964E+03   3.314380E+03   3.345796E+03   3.377212E+03   3.408628E+03   3.440044E+03   3.471460E+03   3.502876E+03   3.534292E+03
INTERNAL               1 (113G15.6)  -1 #ssz Layer 3                   
   1.570796E+01   4.712389E+01   7.853982E+01   1.099557E+02   1.413717E+02   1.727876E+02   2.042035E+02   2.356194E+02   2.670354E+02   2.984513E+02   3.298672E+02   3.612831E+02   3.926991E+02   4.241150E+02   4.555309E+02   4.869469E+02   5.183628E+02   5.497787E+02   5.811946E+02   6.126106E+02   6.440265E+02   6.754424E+02   7.068583E+02   7.382743E+02   7.696902E+02   8.011061E+02   8.325220E+02   8.639380E+02   8.953539E+02   9.267698E+02   9.581857E+02   9.896017E+02   1.021018E+03   1.052434E+03   1.083849E+03   1.115265E+03   1.146681E+03   1.178097E+03   1.209513E+03   1.240929E+03   1.272345E+03   1.303761E+03   1.335177E+03   1.366593E+03   1.398009E+03   1.429425E+03   1.460841E+03   1.492256E+03   1.523672E+03   1.555088E+03   1.586504E+03   1.617920E+03   1.649336E+03   1.680752E+03   1.712168E+03   1.743584E+03   1.775000E+03   1.806416E+03   1.837832E+03   1.869248E+03   1.900664E+03   1.932079E+03   1.963495E+03   1.994911E+03   2.026327E+03   2.057743E+03   2.089159E+03   2.120575E+03   2.151991E+03   2.183407E+03   2.214823E+03   2.246239E+03   2.277655E+03   2.309071E+03   2.340487E+03   2.371902E+03   2.403318E+03   2.434734E+03   2.466150E+03   2.497566E+03   2.528982E+03   2.560398E+03   2.591814E+03   2.623230E+03   2.654646E+03   2.686062E+03   2.717478E+03   2.748894E+03   2.780310E+03   2.811725E+03   2.843141E+03   2.874557E+03   2.905973E+03   2.937389E+03   2.968805E+03   3.000221E+03   3.031637E+03   3.063053E+03   3.094469E+03   3.125885E+03   3.157301E+03   3.188717E+03   3.220133E+03   3.251548E+03   3.282964E+03   3.314380E+03   3.345796E+03   3.377212E+03   3.408628E+03   3.440044E+03   3.471460E+03   3.502876E+03   3.534292E+03
INTERNAL               1 (113G15.6)  -1 #ssz Layer 4                   
   1.570796E+01   4.712389E+01   7.853982E+01   1.099557E+02   1.413717E+02   1.727876E+02   2.042035E+02   2.356194E+02   2.670354E+02   2.984513E+02   3.298672E+02   3.612831E+02   3.926991E+02   4.241150E+02   4.555309E+02   4.869469E+02   5.183628E+02   5.497787E+02   5.811946E+02   6.126106E+02   6.440265E+02   6.754424E+02   7.068583E+02   7.382743E+02   7.696902E+02   8.011061E+02   8.325220E+02   8.639380E+02   8.953539E+02   9.267698E+02   9.581857E+02   9.896017E+02   1.021018E+03   1.052434E+03   1.083849E+03   1.115265E+03   1.146681E+03   1.178097E+03   1.209513E+03   1.240929E+03   1.272345E+03   1.303761E+03   1.335177E+03   1.366593E+03   1.398009E+03   1.429425E+03   1.460841E+03   1.492256E+03   1.523672E+03   1.555088E+03   1.586504E+03   1.617920E+03   1.649336E+03   1.680752E+03   1.712168E+03   1.743584E+03   1.775000E+03   1.806416E+03   1.837832E+03   1.869248E+03   1.900664E+03   1.932079E+03   1.963495E+03   1.994911E+03   2.026327E+03   2.057743E+03   2.089159E+03   2.120575E+03   2.151991E+03   2.183407E+03   2.214823E+03   2.246239E+03   2.277655E+03   2.309071E+03   2.340487E+03   2.371902E+03   2.403318E+03   2.434734E+03   2.466150E+03   2.497566E+03   2.528982E+03   2.560398E+03   2.591814E+03   2.623230E+03   2.654646E+03   2.686062E+03   2.717478E+03   2.748894E+03   2.780310E+03   2.811725E+03   2.843141E+03   2.874557E+03   2.905973E+03   2.937389E+03   2.968805E+03   3.000221E+03   3.031637E+03   3.063053E+03   3.094469E+03   3.125885E+03   3.157301E+03   3.188717E+03   3.220133E+03   3.251548E+03   3.282964E+03   3.314380E+03   3.345796E+03   3.377212E+03   3.408628E+03   3.440044E+03   3.471460E+03   3.502876E+03   3.534292E+03
INTERNAL               1 (113G15.6)  -1 #ssz Layer 5                   
   1.570796E+01   4.712389E+01   7.853982E+01   1.099557E+02   1.413717E+02   1.727876E+02   2.042035E+02   2.356194E+02   2.670354E+02   2.984513E+02   3.298672E+02   3.612831E+02   3.926991E+02   4.241150E+02   4.555309E+02   4.869469E+02   5.183628E+02   5.497787E+02   5.811946E+02   6.126106E+02   6.440265E+02   6.754424E+02   7.068583E+02   7.382743E+02   7.696902E+02   8.011061E+02   8.325220E+02   8.639380E+02   8.953539E+02   9.267698E+02   9.581857E+02   9.896017E+02   1.021018E+03   1.052434E+03   1.083849E+03   1.115265E+03   1.146681E+03   1.178097E+03   1.209513E+03   1.240929E+03   1.272345E+03   1.303761E+03   1.335177E+03   1.366593E+03   1.398009E+03   1.429425E+03   1.460841E+03   1.492256E+03   1.523672E+03   1.555088E+03   1.586504E+03   1.617920E+03   1.649336E+03   1.680752E+03   1.712168E+03   1.743584E+03   1.775000E+03   1.806416E+03   1.837832E+03   1.869248E+03   1.900664E+03   1.932079E+03   1.963495E+03   1.994911E+03   2.026327E+03   2.057743E+03   2.089159E+03   2.120575E+03   2.151991E+03   2.183407E+03   2.214823E+03   2.246239E+03   2.277655E+03   2.309071E+03   2.340487E+03   2.371902E+03   2.403318E+03   2.434734E+03   2.466150E+03   2.497566E+03   2.528982E+03   2.560398E+03   2.591814E+03   2.623230E+03   2.654646E+03   2.686062E+03   2.717478E+03   2.748894E+03   2.780310E+03   2.811725E+03   2.843141E+03   2.874557E+03   2.905973E+03   2.937389E+03   2.968805E+03   3.000221E+03   3.031637E+03   3.063053E+03   3.094469E+03   3.125885E+03   3.157301E+03   3.188717E+03   3.220133E+03   3.251548E+03   3.282964E+03   3.314380E+03   3.345796E+03   3.377212E+03   3.408628E+03   3.440044E+03   3.471460E+03   3.502876E+03   3.534292E+03
INTERNAL               1 (113G15.6)  -1 #ssz Layer 6                   
   1.570796E+01   4.712389E+01   7.853982E+01   1.099557E+02   1.413717E+02   1.727876E+02   2.042035E+02   2.356194E+02   2.670354E+02   2.984513E+02   3.298672E+02   3.612831E+02   3.926991E+02   4.241150E+02   4.555309E+02   4.869469E+02   5.183628E+02   5.497787E+02   5.811946E+02   6.126106E+02   6.440265E+02   6.754424E+02   7.068583E+02   7.382743E+02   7.696902E+02   8.011061E+02   8.325220E+02   8.639380E+02   8.953539E+02   9.267698E+02   9.581857E+02   9.896017E+02   1.021018E+03   1.052434E+03   1.083849E+03   1.115265E+03   1.146681E+03   1.178097E+03   1.209513E+03   1.240929E+03   1.272345E+03   1.303761E+03   1.335177E+03   1.366593E+03   1.398009E+03   1.429425E+03   1.460841E+03   1.492256E+03   1.523672E+03   1.555088E+03   1.586504E+03   1.617920E+03   1.649336E+03   1.680752E+03   1.712168E+03   1.743584E+03   1.775000E+03   1.806416E+03   1.837832E+03   1.869248E+03   1.900664E+03   1.932079E+03   1.963495E+03   1.994911E+03   2.026327E+03   2.057743E+03   2.089159E+03   2.120575E+03   2.151991E+03   2.183407E+03   2.214823E+03   2.246239E+03   2.277655E+03   2.309071E+03   2.340487E+03   2.371902E+03   2.403318E+03   2.434734E+03   2.466150E+03   2.497566E+03   2.528982E+03   2.560398E+03   2.591814E+03   2.623230E+03   2.654646E+03   2.686062E+03   2.717478E+03   2.748894E+03   2.780310E+03   2.811725E+03   2.843141E+03   2.874557E+03   2.905973E+03   2.937389E+03   2.968805E+03   3.000221E+03   3.031637E+03   3.063053E+03   3.094469E+03   3.125885E+03   3.157301E+03   3.188717E+03   3.220133E+03   3.251548E+03   3.282964E+03   3.314380E+03   3.345796E+03   3.377212E+03   3.408628E+03   3.440044E+03   3.471460E+03   3.502876E+03   3.534292E+03
# Dataset 7
INTERNAL               1  (113I10)  -1 #isource Layer 1               
         0         0         0         0         0         0         0         0         0         0         0         0         0         0         0         0         0         0         0         0         0         0         0         0         0         0         0         0         0         0         0         0         0         0         0         0         0         0         0         0         0         0         0         0         0         0         0         0         0         0         0         0         0         0         0         0         0         0         0         0         0         0         0         0         0         0         0         0         0         0         0         0         0         0         0         0         0         0         0         0         0         0         0         0         0         0         0         0         0         0         0         0         0         0         0         0         0         0         0         0         0         0         0         0         0         0         0         0         0         0         0         0         1
INTERNAL               1  (113I10)  -1 #isource Layer 2               
         0         0         0         0         0         0         0         0         0         0         0         0         0         0         0         0         0         0         0         0         0         0         0         0         0         0         0         0         0         0         0         0         0         0         0         0         0         0         0         0         0         0         0         0         0         0         0         0         0         0         0         0         0         0         0         0         0         0         0         0         0         0         0         0         0         0         0         0         0         0         0         0         0         0         0         0         0         0         0         0         0         0         0         0         0         0         0         0         0         0         0         0         0         0         0         0         0         0         0         0         0         0         0         0         0         0         0         0         0         0         0         0         1
INTERNAL               1  (113I10)  -1 #isource Layer 3               
         0         0         0         0         0         0         0         0         0         0         0         0         0         0         0         0         0         0         0         0         0         0         0         0         0         0         0         0         0         0         0         0         0         0         0         0         0         0         0         0         0         0         0         0         0         0         0         0         0         0         0         0         0         0         0         0         0         0         0         0         0         0         0         0         0         0         0         0         0         0         0         0         0         0         0         0         0         0         0         0         0         0         0         0         0         0         0         0         0         0         0         0         0         0         0         0         0         0         0         0         0         0         0         0         0         0         0         0         0         0         0         0         1
INTERNAL               1  (113I10)  -1 #isource Layer 4               
         0         0         0         0         0         0         0         0         0         0         0         0         0         0         0         0         0         0         0         0         0         0         0         0         0         0         0         0         0         0         0         0         0         0         0         0         0         0         0         0         0         0         0         0         0         0         0         0         0         0         0         0         0         0         0         0         0         0         0         0         0         0         0         0         0         0         0         0         0         0         0         0         0         0         0         0         0         0         0         0         0         0         0         0         0         0         0         0         0         0         0         0         0         0         0         0         0         0         0         0         0         0         0         0         0         0         0         0         0         0         0         0         1
INTERNAL               1  (113I10)  -1 #isource Layer 5               
         0         0         0         0         0         0         0         0         0         0         0         0         0         0         0         0         0         0         0         0         0         0         0         0         0         0         0         0         0         0         0         0         0         0         0         0         0         0         0         0         0         0         0         0         0         0         0         0         0         0         0         0         0         0         0         0         0         0         0         0         0         0         0         0         0         0         0         0         0         0         0         0         0         0         0         0         0         0         0         0         0         0         0         0         0         0         0         0         0         0         0         0         0         0         0         0         0         0         0         0         0         0         0         0         0         0         0         0         0         0         0         0         1
INTERNAL               1  (113I10)  -1 #isource Layer 6               
         0         0         0         0         0         0         0         0         0         0         0         0         0         0         0         0         0         0         0         0         0         0         0         0         0         0         0         0         0         0         0         0         0         0         0         0         0         0         0         0         0         0         0         0         0         0         0         0         0         0         0         0         0         0         0         0         0         0         0         0         0         0         0         0         0         0         0         0         0         0         0         0         0         0         0         0         0         0         0         0         0         0         0         0         0         0         0         0         0         0         0         0         0         0         0         0         0         0         0         0         0         0         0         0         0         0         0         0         0         0         0         0         2
