# Output control package file for MODFLOW, generated by Flopy. Output control by words option
# Deprecated flopy OC class
HEAD PRINT FORMAT   0
HEAD SAVE UNIT    51
DRAWDOWN PRINT FORMAT   0
DRAWDOWN SAVE UNIT    52

PERIOD     1 STEP                                             1
  PRINT BUDGET

PERIOD     1 STEP                                             2
  PRINT BUDGET

PERIOD     1 STEP                                             3
  PRINT BUDGET

PERIOD     1 STEP                                             4
  PRINT BUDGET

PERIOD     1 STEP                                             5
  PRINT BUDGET

PERIOD     1 STEP                                             6
  PRINT BUDGET

PERIOD     1 STEP                                             7
  PRINT BUDGET

PERIOD     1 STEP                                             8
  PRINT BUDGET

PERIOD     1 STEP                                             9
  PRINT BUDGET

PERIOD     1 STEP                                            10
  PRINT BUDGET

PERIOD     1 STEP                                           365
  PRINT BUDGET
  SAVE HEAD

PERIOD     1 STEP                                           730
  PRINT BUDGET
  SAVE HEAD

PERIOD     1 STEP                                          1095
  PRINT BUDGET
  SAVE HEAD

PERIOD     1 STEP                                          1460
  PRINT BUDGET
  SAVE HEAD

PERIOD     2 STEP                                             1
  PRINT BUDGET

PERIOD     2 STEP                                             2
  PRINT BUDGET

PERIOD     2 STEP                                             3
  PRINT BUDGET

PERIOD     2 STEP                                             4
  PRINT BUDGET

PERIOD     2 STEP                                             5
  PRINT BUDGET

PERIOD     2 STEP                                             6
  PRINT BUDGET

PERIOD     2 STEP                                             7
  PRINT BUDGET

PERIOD     2 STEP                                             8
  PRINT BUDGET

PERIOD     2 STEP                                             9
  PRINT BUDGET

PERIOD     2 STEP                                            10
  PRINT BUDGET

PERIOD     2 STEP                                           365
  PRINT BUDGET
  SAVE HEAD

PERIOD     2 STEP                                           730
  PRINT BUDGET
  SAVE HEAD

PERIOD     2 STEP                                          1095
  PRINT BUDGET
  SAVE HEAD

PERIOD     2 STEP                                          1460
  PRINT BUDGET
  SAVE HEAD

