# Well file for MODFLOW, generated by Flopy.
         1         0
         1         0 # stress period 0
         1         1         1 -2400.000000
         1         0 # stress period 1
         1         1         1  0.000000
