# LPF for MODFLOW, generated by Flopy.
        53    -1E+30         0  
         0         0         0         0         0         0
         1         1         1         1         1         1
   1.000000E+00   1.000000E+00   1.000000E+00   1.000000E+00   1.000000E+00   1.000000E+00
         0         0         0         0         0         0
         0         0         0         0         0         0
INTERNAL               1 (113G15.6)  -1 #hk Layer 1                    
   1.704169E+03   5.112506E+03   8.520844E+03   1.192918E+04   1.533752E+04   1.874586E+04   2.215419E+04   2.556253E+04   2.897087E+04   3.237921E+04   3.578754E+04   3.919588E+04   4.260422E+04   4.601255E+04   4.942089E+04   5.282923E+04   5.623757E+04   5.964591E+04   6.305424E+04   6.646258E+04   6.987092E+04   7.327926E+04   7.668759E+04   8.009593E+04   8.350427E+04   8.691261E+04   9.032095E+04   9.372928E+04   9.713762E+04   1.005460E+05   1.039543E+05   1.073626E+05   1.107710E+05   1.141793E+05   1.175876E+05   1.209960E+05   1.244043E+05   1.278127E+05   1.312210E+05   1.346293E+05   1.380377E+05   1.414460E+05   1.448543E+05   1.482627E+05   1.516710E+05   1.550794E+05   1.584877E+05   1.618960E+05   1.653044E+05   1.687127E+05   1.721210E+05   1.755294E+05   1.789377E+05   1.823461E+05   1.857544E+05   1.891627E+05   1.925711E+05   1.959794E+05   1.993878E+05   2.027961E+05   2.062044E+05   2.096128E+05   2.130211E+05   2.164294E+05   2.198378E+05   2.232461E+05   2.266544E+05   2.300628E+05   2.334711E+05   2.368795E+05   2.402878E+05   2.436961E+05   2.471045E+05   2.505128E+05   2.539211E+05   2.573295E+05   2.607378E+05   2.641462E+05   2.675545E+05   2.709628E+05   2.743712E+05   2.777795E+05   2.811878E+05   2.845962E+05   2.880045E+05   2.914128E+05   2.948212E+05   2.982295E+05   3.016379E+05   3.050462E+05   3.084545E+05   3.118629E+05   3.152712E+05   3.186796E+05   3.220879E+05   3.254962E+05   3.289046E+05   3.323129E+05   3.357212E+05   3.391296E+05   3.425379E+05   3.459462E+05   3.493546E+05   3.527629E+05   3.561713E+05   3.595796E+05   3.629879E+05   3.663963E+05   3.698046E+05   3.732130E+05   3.766213E+05   3.800296E+05   3.834380E+05
INTERNAL               1 (113G15.6)  -1 #vka Layer 1                   
   6.656909E+02   1.997073E+03   3.328455E+03   4.659836E+03   5.991218E+03   7.322600E+03   8.653981E+03   9.985363E+03   1.131675E+04   1.264813E+04   1.397951E+04   1.531089E+04   1.664227E+04   1.797365E+04   1.930504E+04   2.063642E+04   2.196780E+04   2.329918E+04   2.463056E+04   2.596195E+04   2.729333E+04   2.862471E+04   2.995609E+04   3.128747E+04   3.261886E+04   3.395024E+04   3.528162E+04   3.661300E+04   3.794438E+04   3.927577E+04   4.060714E+04   4.193853E+04   4.326991E+04   4.460129E+04   4.593267E+04   4.726405E+04   4.859544E+04   4.992682E+04   5.125820E+04   5.258958E+04   5.392096E+04   5.525235E+04   5.658373E+04   5.791511E+04   5.924649E+04   6.057788E+04   6.190925E+04   6.324064E+04   6.457202E+04   6.590340E+04   6.723478E+04   6.856616E+04   6.989755E+04   7.122893E+04   7.256031E+04   7.389170E+04   7.522307E+04   7.655445E+04   7.788584E+04   7.921722E+04   8.054860E+04   8.187998E+04   8.321137E+04   8.454275E+04   8.587412E+04   8.720551E+04   8.853689E+04   8.986827E+04   9.119966E+04   9.253104E+04   9.386242E+04   9.519380E+04   9.652518E+04   9.785656E+04   9.918795E+04   1.005193E+05   1.018507E+05   1.031821E+05   1.045135E+05   1.058449E+05   1.071762E+05   1.085076E+05   1.098390E+05   1.111704E+05   1.125018E+05   1.138331E+05   1.151645E+05   1.164959E+05   1.178273E+05   1.191587E+05   1.204901E+05   1.218214E+05   1.231528E+05   1.244842E+05   1.258156E+05   1.271470E+05   1.284783E+05   1.298097E+05   1.311411E+05   1.324725E+05   1.338039E+05   1.351352E+05   1.364666E+05   1.377980E+05   1.391294E+05   1.404608E+05   1.417922E+05   1.431235E+05   1.444549E+05   1.457863E+05   1.471177E+05   1.484491E+05   1.497805E+05
INTERNAL               1 (113G15.6)  -1 #hk Layer 2                    
   1.704169E+03   5.112506E+03   8.520844E+03   1.192918E+04   1.533752E+04   1.874586E+04   2.215419E+04   2.556253E+04   2.897087E+04   3.237921E+04   3.578754E+04   3.919588E+04   4.260422E+04   4.601255E+04   4.942089E+04   5.282923E+04   5.623757E+04   5.964591E+04   6.305424E+04   6.646258E+04   6.987092E+04   7.327926E+04   7.668759E+04   8.009593E+04   8.350427E+04   8.691261E+04   9.032095E+04   9.372928E+04   9.713762E+04   1.005460E+05   1.039543E+05   1.073626E+05   1.107710E+05   1.141793E+05   1.175876E+05   1.209960E+05   1.244043E+05   1.278127E+05   1.312210E+05   1.346293E+05   1.380377E+05   1.414460E+05   1.448543E+05   1.482627E+05   1.516710E+05   1.550794E+05   1.584877E+05   1.618960E+05   1.653044E+05   1.687127E+05   1.721210E+05   1.755294E+05   1.789377E+05   1.823461E+05   1.857544E+05   1.891627E+05   1.925711E+05   1.959794E+05   1.993878E+05   2.027961E+05   2.062044E+05   2.096128E+05   2.130211E+05   2.164294E+05   2.198378E+05   2.232461E+05   2.266544E+05   2.300628E+05   2.334711E+05   2.368795E+05   2.402878E+05   2.436961E+05   2.471045E+05   2.505128E+05   2.539211E+05   2.573295E+05   2.607378E+05   2.641462E+05   2.675545E+05   2.709628E+05   2.743712E+05   2.777795E+05   2.811878E+05   2.845962E+05   2.880045E+05   2.914128E+05   2.948212E+05   2.982295E+05   3.016379E+05   3.050462E+05   3.084545E+05   3.118629E+05   3.152712E+05   3.186796E+05   3.220879E+05   3.254962E+05   3.289046E+05   3.323129E+05   3.357212E+05   3.391296E+05   3.425379E+05   3.459462E+05   3.493546E+05   3.527629E+05   3.561713E+05   3.595796E+05   3.629879E+05   3.663963E+05   3.698046E+05   3.732130E+05   3.766213E+05   3.800296E+05   3.834380E+05
INTERNAL               1 (113G15.6)  -1 #vka Layer 2                   
   6.656909E+02   1.997073E+03   3.328455E+03   4.659836E+03   5.991218E+03   7.322600E+03   8.653981E+03   9.985363E+03   1.131675E+04   1.264813E+04   1.397951E+04   1.531089E+04   1.664227E+04   1.797365E+04   1.930504E+04   2.063642E+04   2.196780E+04   2.329918E+04   2.463056E+04   2.596195E+04   2.729333E+04   2.862471E+04   2.995609E+04   3.128747E+04   3.261886E+04   3.395024E+04   3.528162E+04   3.661300E+04   3.794438E+04   3.927577E+04   4.060714E+04   4.193853E+04   4.326991E+04   4.460129E+04   4.593267E+04   4.726405E+04   4.859544E+04   4.992682E+04   5.125820E+04   5.258958E+04   5.392096E+04   5.525235E+04   5.658373E+04   5.791511E+04   5.924649E+04   6.057788E+04   6.190925E+04   6.324064E+04   6.457202E+04   6.590340E+04   6.723478E+04   6.856616E+04   6.989755E+04   7.122893E+04   7.256031E+04   7.389170E+04   7.522307E+04   7.655445E+04   7.788584E+04   7.921722E+04   8.054860E+04   8.187998E+04   8.321137E+04   8.454275E+04   8.587412E+04   8.720551E+04   8.853689E+04   8.986827E+04   9.119966E+04   9.253104E+04   9.386242E+04   9.519380E+04   9.652518E+04   9.785656E+04   9.918795E+04   1.005193E+05   1.018507E+05   1.031821E+05   1.045135E+05   1.058449E+05   1.071762E+05   1.085076E+05   1.098390E+05   1.111704E+05   1.125018E+05   1.138331E+05   1.151645E+05   1.164959E+05   1.178273E+05   1.191587E+05   1.204901E+05   1.218214E+05   1.231528E+05   1.244842E+05   1.258156E+05   1.271470E+05   1.284783E+05   1.298097E+05   1.311411E+05   1.324725E+05   1.338039E+05   1.351352E+05   1.364666E+05   1.377980E+05   1.391294E+05   1.404608E+05   1.417922E+05   1.431235E+05   1.444549E+05   1.457863E+05   1.471177E+05   1.484491E+05   1.497805E+05
INTERNAL               1 (113G15.6)  -1 #hk Layer 3                    
   1.704169E+03   5.112506E+03   8.520844E+03   1.192918E+04   1.533752E+04   1.874586E+04   2.215419E+04   2.556253E+04   2.897087E+04   3.237921E+04   3.578754E+04   3.919588E+04   4.260422E+04   4.601255E+04   4.942089E+04   5.282923E+04   5.623757E+04   5.964591E+04   6.305424E+04   6.646258E+04   6.987092E+04   7.327926E+04   7.668759E+04   8.009593E+04   8.350427E+04   8.691261E+04   9.032095E+04   9.372928E+04   9.713762E+04   1.005460E+05   1.039543E+05   1.073626E+05   1.107710E+05   1.141793E+05   1.175876E+05   1.209960E+05   1.244043E+05   1.278127E+05   1.312210E+05   1.346293E+05   1.380377E+05   1.414460E+05   1.448543E+05   1.482627E+05   1.516710E+05   1.550794E+05   1.584877E+05   1.618960E+05   1.653044E+05   1.687127E+05   1.721210E+05   1.755294E+05   1.789377E+05   1.823461E+05   1.857544E+05   1.891627E+05   1.925711E+05   1.959794E+05   1.993878E+05   2.027961E+05   2.062044E+05   2.096128E+05   2.130211E+05   2.164294E+05   2.198378E+05   2.232461E+05   2.266544E+05   2.300628E+05   2.334711E+05   2.368795E+05   2.402878E+05   2.436961E+05   2.471045E+05   2.505128E+05   2.539211E+05   2.573295E+05   2.607378E+05   2.641462E+05   2.675545E+05   2.709628E+05   2.743712E+05   2.777795E+05   2.811878E+05   2.845962E+05   2.880045E+05   2.914128E+05   2.948212E+05   2.982295E+05   3.016379E+05   3.050462E+05   3.084545E+05   3.118629E+05   3.152712E+05   3.186796E+05   3.220879E+05   3.254962E+05   3.289046E+05   3.323129E+05   3.357212E+05   3.391296E+05   3.425379E+05   3.459462E+05   3.493546E+05   3.527629E+05   3.561713E+05   3.595796E+05   3.629879E+05   3.663963E+05   3.698046E+05   3.732130E+05   3.766213E+05   3.800296E+05   3.834380E+05
INTERNAL               1 (113G15.6)  -1 #vka Layer 3                   
   6.656909E+02   1.997073E+03   3.328455E+03   4.659836E+03   5.991218E+03   7.322600E+03   8.653981E+03   9.985363E+03   1.131675E+04   1.264813E+04   1.397951E+04   1.531089E+04   1.664227E+04   1.797365E+04   1.930504E+04   2.063642E+04   2.196780E+04   2.329918E+04   2.463056E+04   2.596195E+04   2.729333E+04   2.862471E+04   2.995609E+04   3.128747E+04   3.261886E+04   3.395024E+04   3.528162E+04   3.661300E+04   3.794438E+04   3.927577E+04   4.060714E+04   4.193853E+04   4.326991E+04   4.460129E+04   4.593267E+04   4.726405E+04   4.859544E+04   4.992682E+04   5.125820E+04   5.258958E+04   5.392096E+04   5.525235E+04   5.658373E+04   5.791511E+04   5.924649E+04   6.057788E+04   6.190925E+04   6.324064E+04   6.457202E+04   6.590340E+04   6.723478E+04   6.856616E+04   6.989755E+04   7.122893E+04   7.256031E+04   7.389170E+04   7.522307E+04   7.655445E+04   7.788584E+04   7.921722E+04   8.054860E+04   8.187998E+04   8.321137E+04   8.454275E+04   8.587412E+04   8.720551E+04   8.853689E+04   8.986827E+04   9.119966E+04   9.253104E+04   9.386242E+04   9.519380E+04   9.652518E+04   9.785656E+04   9.918795E+04   1.005193E+05   1.018507E+05   1.031821E+05   1.045135E+05   1.058449E+05   1.071762E+05   1.085076E+05   1.098390E+05   1.111704E+05   1.125018E+05   1.138331E+05   1.151645E+05   1.164959E+05   1.178273E+05   1.191587E+05   1.204901E+05   1.218214E+05   1.231528E+05   1.244842E+05   1.258156E+05   1.271470E+05   1.284783E+05   1.298097E+05   1.311411E+05   1.324725E+05   1.338039E+05   1.351352E+05   1.364666E+05   1.377980E+05   1.391294E+05   1.404608E+05   1.417922E+05   1.431235E+05   1.444549E+05   1.457863E+05   1.471177E+05   1.484491E+05   1.497805E+05
INTERNAL               1 (113G15.6)  -1 #hk Layer 4                    
   1.704169E+03   5.112506E+03   8.520844E+03   1.192918E+04   1.533752E+04   1.874586E+04   2.215419E+04   2.556253E+04   2.897087E+04   3.237921E+04   3.578754E+04   3.919588E+04   4.260422E+04   4.601255E+04   4.942089E+04   5.282923E+04   5.623757E+04   5.964591E+04   6.305424E+04   6.646258E+04   6.987092E+04   7.327926E+04   7.668759E+04   8.009593E+04   8.350427E+04   8.691261E+04   9.032095E+04   9.372928E+04   9.713762E+04   1.005460E+05   1.039543E+05   1.073626E+05   1.107710E+05   1.141793E+05   1.175876E+05   1.209960E+05   1.244043E+05   1.278127E+05   1.312210E+05   1.346293E+05   1.380377E+05   1.414460E+05   1.448543E+05   1.482627E+05   1.516710E+05   1.550794E+05   1.584877E+05   1.618960E+05   1.653044E+05   1.687127E+05   1.721210E+05   1.755294E+05   1.789377E+05   1.823461E+05   1.857544E+05   1.891627E+05   1.925711E+05   1.959794E+05   1.993878E+05   2.027961E+05   2.062044E+05   2.096128E+05   2.130211E+05   2.164294E+05   2.198378E+05   2.232461E+05   2.266544E+05   2.300628E+05   2.334711E+05   2.368795E+05   2.402878E+05   2.436961E+05   2.471045E+05   2.505128E+05   2.539211E+05   2.573295E+05   2.607378E+05   2.641462E+05   2.675545E+05   2.709628E+05   2.743712E+05   2.777795E+05   2.811878E+05   2.845962E+05   2.880045E+05   2.914128E+05   2.948212E+05   2.982295E+05   3.016379E+05   3.050462E+05   3.084545E+05   3.118629E+05   3.152712E+05   3.186796E+05   3.220879E+05   3.254962E+05   3.289046E+05   3.323129E+05   3.357212E+05   3.391296E+05   3.425379E+05   3.459462E+05   3.493546E+05   3.527629E+05   3.561713E+05   3.595796E+05   3.629879E+05   3.663963E+05   3.698046E+05   3.732130E+05   3.766213E+05   3.800296E+05   3.834380E+05
INTERNAL               1 (113G15.6)  -1 #vka Layer 4                   
   6.656909E+02   1.997073E+03   3.328455E+03   4.659836E+03   5.991218E+03   7.322600E+03   8.653981E+03   9.985363E+03   1.131675E+04   1.264813E+04   1.397951E+04   1.531089E+04   1.664227E+04   1.797365E+04   1.930504E+04   2.063642E+04   2.196780E+04   2.329918E+04   2.463056E+04   2.596195E+04   2.729333E+04   2.862471E+04   2.995609E+04   3.128747E+04   3.261886E+04   3.395024E+04   3.528162E+04   3.661300E+04   3.794438E+04   3.927577E+04   4.060714E+04   4.193853E+04   4.326991E+04   4.460129E+04   4.593267E+04   4.726405E+04   4.859544E+04   4.992682E+04   5.125820E+04   5.258958E+04   5.392096E+04   5.525235E+04   5.658373E+04   5.791511E+04   5.924649E+04   6.057788E+04   6.190925E+04   6.324064E+04   6.457202E+04   6.590340E+04   6.723478E+04   6.856616E+04   6.989755E+04   7.122893E+04   7.256031E+04   7.389170E+04   7.522307E+04   7.655445E+04   7.788584E+04   7.921722E+04   8.054860E+04   8.187998E+04   8.321137E+04   8.454275E+04   8.587412E+04   8.720551E+04   8.853689E+04   8.986827E+04   9.119966E+04   9.253104E+04   9.386242E+04   9.519380E+04   9.652518E+04   9.785656E+04   9.918795E+04   1.005193E+05   1.018507E+05   1.031821E+05   1.045135E+05   1.058449E+05   1.071762E+05   1.085076E+05   1.098390E+05   1.111704E+05   1.125018E+05   1.138331E+05   1.151645E+05   1.164959E+05   1.178273E+05   1.191587E+05   1.204901E+05   1.218214E+05   1.231528E+05   1.244842E+05   1.258156E+05   1.271470E+05   1.284783E+05   1.298097E+05   1.311411E+05   1.324725E+05   1.338039E+05   1.351352E+05   1.364666E+05   1.377980E+05   1.391294E+05   1.404608E+05   1.417922E+05   1.431235E+05   1.444549E+05   1.457863E+05   1.471177E+05   1.484491E+05   1.497805E+05
INTERNAL               1 (113G15.6)  -1 #hk Layer 5                    
   1.704169E+03   5.112506E+03   8.520844E+03   1.192918E+04   1.533752E+04   1.874586E+04   2.215419E+04   2.556253E+04   2.897087E+04   3.237921E+04   3.578754E+04   3.919588E+04   4.260422E+04   4.601255E+04   4.942089E+04   5.282923E+04   5.623757E+04   5.964591E+04   6.305424E+04   6.646258E+04   6.987092E+04   7.327926E+04   7.668759E+04   8.009593E+04   8.350427E+04   8.691261E+04   9.032095E+04   9.372928E+04   9.713762E+04   1.005460E+05   1.039543E+05   1.073626E+05   1.107710E+05   1.141793E+05   1.175876E+05   1.209960E+05   1.244043E+05   1.278127E+05   1.312210E+05   1.346293E+05   1.380377E+05   1.414460E+05   1.448543E+05   1.482627E+05   1.516710E+05   1.550794E+05   1.584877E+05   1.618960E+05   1.653044E+05   1.687127E+05   1.721210E+05   1.755294E+05   1.789377E+05   1.823461E+05   1.857544E+05   1.891627E+05   1.925711E+05   1.959794E+05   1.993878E+05   2.027961E+05   2.062044E+05   2.096128E+05   2.130211E+05   2.164294E+05   2.198378E+05   2.232461E+05   2.266544E+05   2.300628E+05   2.334711E+05   2.368795E+05   2.402878E+05   2.436961E+05   2.471045E+05   2.505128E+05   2.539211E+05   2.573295E+05   2.607378E+05   2.641462E+05   2.675545E+05   2.709628E+05   2.743712E+05   2.777795E+05   2.811878E+05   2.845962E+05   2.880045E+05   2.914128E+05   2.948212E+05   2.982295E+05   3.016379E+05   3.050462E+05   3.084545E+05   3.118629E+05   3.152712E+05   3.186796E+05   3.220879E+05   3.254962E+05   3.289046E+05   3.323129E+05   3.357212E+05   3.391296E+05   3.425379E+05   3.459462E+05   3.493546E+05   3.527629E+05   3.561713E+05   3.595796E+05   3.629879E+05   3.663963E+05   3.698046E+05   3.732130E+05   3.766213E+05   3.800296E+05   3.834380E+05
INTERNAL               1 (113G15.6)  -1 #vka Layer 5                   
   6.656909E+02   1.997073E+03   3.328455E+03   4.659836E+03   5.991218E+03   7.322600E+03   8.653981E+03   9.985363E+03   1.131675E+04   1.264813E+04   1.397951E+04   1.531089E+04   1.664227E+04   1.797365E+04   1.930504E+04   2.063642E+04   2.196780E+04   2.329918E+04   2.463056E+04   2.596195E+04   2.729333E+04   2.862471E+04   2.995609E+04   3.128747E+04   3.261886E+04   3.395024E+04   3.528162E+04   3.661300E+04   3.794438E+04   3.927577E+04   4.060714E+04   4.193853E+04   4.326991E+04   4.460129E+04   4.593267E+04   4.726405E+04   4.859544E+04   4.992682E+04   5.125820E+04   5.258958E+04   5.392096E+04   5.525235E+04   5.658373E+04   5.791511E+04   5.924649E+04   6.057788E+04   6.190925E+04   6.324064E+04   6.457202E+04   6.590340E+04   6.723478E+04   6.856616E+04   6.989755E+04   7.122893E+04   7.256031E+04   7.389170E+04   7.522307E+04   7.655445E+04   7.788584E+04   7.921722E+04   8.054860E+04   8.187998E+04   8.321137E+04   8.454275E+04   8.587412E+04   8.720551E+04   8.853689E+04   8.986827E+04   9.119966E+04   9.253104E+04   9.386242E+04   9.519380E+04   9.652518E+04   9.785656E+04   9.918795E+04   1.005193E+05   1.018507E+05   1.031821E+05   1.045135E+05   1.058449E+05   1.071762E+05   1.085076E+05   1.098390E+05   1.111704E+05   1.125018E+05   1.138331E+05   1.151645E+05   1.164959E+05   1.178273E+05   1.191587E+05   1.204901E+05   1.218214E+05   1.231528E+05   1.244842E+05   1.258156E+05   1.271470E+05   1.284783E+05   1.298097E+05   1.311411E+05   1.324725E+05   1.338039E+05   1.351352E+05   1.364666E+05   1.377980E+05   1.391294E+05   1.404608E+05   1.417922E+05   1.431235E+05   1.444549E+05   1.457863E+05   1.471177E+05   1.484491E+05   1.497805E+05
INTERNAL               1 (113G15.6)  -1 #hk Layer 6                    
   1.704169E+03   5.112506E+03   8.520844E+03   1.192918E+04   1.533752E+04   1.874586E+04   2.215419E+04   2.556253E+04   2.897087E+04   3.237921E+04   3.578754E+04   3.919588E+04   4.260422E+04   4.601255E+04   4.942089E+04   5.282923E+04   5.623757E+04   5.964591E+04   6.305424E+04   6.646258E+04   6.987092E+04   7.327926E+04   7.668759E+04   8.009593E+04   8.350427E+04   8.691261E+04   9.032095E+04   9.372928E+04   9.713762E+04   1.005460E+05   1.039543E+05   1.073626E+05   1.107710E+05   1.141793E+05   1.175876E+05   1.209960E+05   1.244043E+05   1.278127E+05   1.312210E+05   1.346293E+05   1.380377E+05   1.414460E+05   1.448543E+05   1.482627E+05   1.516710E+05   1.550794E+05   1.584877E+05   1.618960E+05   1.653044E+05   1.687127E+05   1.721210E+05   1.755294E+05   1.789377E+05   1.823461E+05   1.857544E+05   1.891627E+05   1.925711E+05   1.959794E+05   1.993878E+05   2.027961E+05   2.062044E+05   2.096128E+05   2.130211E+05   2.164294E+05   2.198378E+05   2.232461E+05   2.266544E+05   2.300628E+05   2.334711E+05   2.368795E+05   2.402878E+05   2.436961E+05   2.471045E+05   2.505128E+05   2.539211E+05   2.573295E+05   2.607378E+05   2.641462E+05   2.675545E+05   2.709628E+05   2.743712E+05   2.777795E+05   2.811878E+05   2.845962E+05   2.880045E+05   2.914128E+05   2.948212E+05   2.982295E+05   3.016379E+05   3.050462E+05   3.084545E+05   3.118629E+05   3.152712E+05   3.186796E+05   3.220879E+05   3.254962E+05   3.289046E+05   3.323129E+05   3.357212E+05   3.391296E+05   3.425379E+05   3.459462E+05   3.493546E+05   3.527629E+05   3.561713E+05   3.595796E+05   3.629879E+05   3.663963E+05   3.698046E+05   3.732130E+05   3.766213E+05   3.800296E+05   3.834380E+05
INTERNAL               1 (113G15.6)  -1 #vka Layer 6                   
   6.656909E+02   1.997073E+03   3.328455E+03   4.659836E+03   5.991218E+03   7.322600E+03   8.653981E+03   9.985363E+03   1.131675E+04   1.264813E+04   1.397951E+04   1.531089E+04   1.664227E+04   1.797365E+04   1.930504E+04   2.063642E+04   2.196780E+04   2.329918E+04   2.463056E+04   2.596195E+04   2.729333E+04   2.862471E+04   2.995609E+04   3.128747E+04   3.261886E+04   3.395024E+04   3.528162E+04   3.661300E+04   3.794438E+04   3.927577E+04   4.060714E+04   4.193853E+04   4.326991E+04   4.460129E+04   4.593267E+04   4.726405E+04   4.859544E+04   4.992682E+04   5.125820E+04   5.258958E+04   5.392096E+04   5.525235E+04   5.658373E+04   5.791511E+04   5.924649E+04   6.057788E+04   6.190925E+04   6.324064E+04   6.457202E+04   6.590340E+04   6.723478E+04   6.856616E+04   6.989755E+04   7.122893E+04   7.256031E+04   7.389170E+04   7.522307E+04   7.655445E+04   7.788584E+04   7.921722E+04   8.054860E+04   8.187998E+04   8.321137E+04   8.454275E+04   8.587412E+04   8.720551E+04   8.853689E+04   8.986827E+04   9.119966E+04   9.253104E+04   9.386242E+04   9.519380E+04   9.652518E+04   9.785656E+04   9.918795E+04   1.005193E+05   1.018507E+05   1.031821E+05   1.045135E+05   1.058449E+05   1.071762E+05   1.085076E+05   1.098390E+05   1.111704E+05   1.125018E+05   1.138331E+05   1.151645E+05   1.164959E+05   1.178273E+05   1.191587E+05   1.204901E+05   1.218214E+05   1.231528E+05   1.244842E+05   1.258156E+05   1.271470E+05   1.284783E+05   1.298097E+05   1.311411E+05   1.324725E+05   1.338039E+05   1.351352E+05   1.364666E+05   1.377980E+05   1.391294E+05   1.404608E+05   1.417922E+05   1.431235E+05   1.444549E+05   1.457863E+05   1.471177E+05   1.484491E+05   1.497805E+05
