# Discretization file for MODFLOW, generated by Flopy.
         6         1       113         2         4         2
  0  0  0  0  0  0
INTERNAL               1 (113G15.6)  -1 #delr                          
   2.500000E+01   2.500000E+01   2.500000E+01   2.500000E+01   2.500000E+01   2.500000E+01   2.500000E+01   2.500000E+01   2.500000E+01   2.500000E+01   2.500000E+01   2.500000E+01   2.500000E+01   2.500000E+01   2.500000E+01   2.500000E+01   2.500000E+01   2.500000E+01   2.500000E+01   2.500000E+01   2.500000E+01   2.500000E+01   2.500000E+01   2.500000E+01   2.500000E+01   2.500000E+01   2.500000E+01   2.500000E+01   2.500000E+01   2.500000E+01   2.500000E+01   2.500000E+01   2.500000E+01   2.500000E+01   2.500000E+01   2.500000E+01   2.500000E+01   2.500000E+01   2.500000E+01   2.500000E+01   2.500000E+01   2.500000E+01   2.500000E+01   2.500000E+01   2.500000E+01   2.500000E+01   2.500000E+01   2.500000E+01   2.500000E+01   2.500000E+01   2.500000E+01   2.500000E+01   2.500000E+01   2.500000E+01   2.500000E+01   2.500000E+01   2.500000E+01   2.500000E+01   2.500000E+01   2.500000E+01   2.500000E+01   2.500000E+01   2.500000E+01   2.500000E+01   2.500000E+01   2.500000E+01   2.500000E+01   2.500000E+01   2.500000E+01   2.500000E+01   2.500000E+01   2.500000E+01   2.500000E+01   2.500000E+01   2.500000E+01   2.500000E+01   2.500000E+01   2.500000E+01   2.500000E+01   2.500000E+01   2.500000E+01   2.500000E+01   2.500000E+01   2.500000E+01   2.500000E+01   2.500000E+01   2.500000E+01   2.500000E+01   2.500000E+01   2.500000E+01   2.500000E+01   2.500000E+01   2.500000E+01   2.500000E+01   2.500000E+01   2.500000E+01   2.500000E+01   2.500000E+01   2.500000E+01   2.500000E+01   2.500000E+01   2.500000E+01   2.500000E+01   2.500000E+01   2.500000E+01   2.500000E+01   2.500000E+01   2.500000E+01   2.500000E+01   2.500000E+01   2.500000E+01   2.500000E+01   2.500000E+01
CONSTANT    1.000000E+00                           #delc                          
CONSTANT    0.000000E+00                           #model_top                     
INTERNAL               1 (113G15.6)  -1 #botm Layer 1                  
  -2.000000E+01  -2.000000E+01  -2.000000E+01  -2.000000E+01  -2.000000E+01  -2.000000E+01  -2.000000E+01  -2.000000E+01  -2.000000E+01  -2.000000E+01  -2.000000E+01  -2.000000E+01  -2.000000E+01  -2.000000E+01  -2.000000E+01  -2.000000E+01  -2.000000E+01  -2.000000E+01  -2.000000E+01  -2.000000E+01  -2.000000E+01  -2.000000E+01  -2.000000E+01  -2.000000E+01  -2.000000E+01  -2.000000E+01  -2.000000E+01  -2.000000E+01  -2.000000E+01  -2.000000E+01  -2.000000E+01  -2.000000E+01  -2.000000E+01  -2.000000E+01  -2.000000E+01  -2.000000E+01  -2.000000E+01  -2.000000E+01  -2.000000E+01  -2.000000E+01  -2.000000E+01  -2.000000E+01  -2.000000E+01  -2.000000E+01  -2.000000E+01  -2.000000E+01  -2.000000E+01  -2.000000E+01  -2.000000E+01  -2.000000E+01  -2.000000E+01  -2.000000E+01  -2.000000E+01  -2.000000E+01  -2.000000E+01  -2.000000E+01  -2.000000E+01  -2.000000E+01  -2.000000E+01  -2.000000E+01  -2.000000E+01  -2.000000E+01  -2.000000E+01  -2.000000E+01  -2.000000E+01  -2.000000E+01  -2.000000E+01  -2.000000E+01  -2.000000E+01  -2.000000E+01  -2.000000E+01  -2.000000E+01  -2.000000E+01  -2.000000E+01  -2.000000E+01  -2.000000E+01  -2.000000E+01  -2.000000E+01  -2.000000E+01  -2.000000E+01  -2.000000E+01  -2.000000E+01  -2.000000E+01  -2.000000E+01  -2.000000E+01  -2.000000E+01  -2.000000E+01  -2.000000E+01  -2.000000E+01  -2.000000E+01  -2.000000E+01  -2.000000E+01  -2.000000E+01  -2.000000E+01  -2.000000E+01  -2.000000E+01  -2.000000E+01  -2.000000E+01  -2.000000E+01  -2.000000E+01  -2.000000E+01  -2.000000E+01  -2.000000E+01  -2.000000E+01  -2.000000E+01  -2.000000E+01  -2.000000E+01  -2.000000E+01  -2.000000E+01  -2.000000E+01  -2.000000E+01  -2.000000E+01  -2.000000E+01
INTERNAL               1 (113G15.6)  -1 #botm Layer 2                  
  -4.000000E+01  -4.000000E+01  -4.000000E+01  -4.000000E+01  -4.000000E+01  -4.000000E+01  -4.000000E+01  -4.000000E+01  -4.000000E+01  -4.000000E+01  -4.000000E+01  -4.000000E+01  -4.000000E+01  -4.000000E+01  -4.000000E+01  -4.000000E+01  -4.000000E+01  -4.000000E+01  -4.000000E+01  -4.000000E+01  -4.000000E+01  -4.000000E+01  -4.000000E+01  -4.000000E+01  -4.000000E+01  -4.000000E+01  -4.000000E+01  -4.000000E+01  -4.000000E+01  -4.000000E+01  -4.000000E+01  -4.000000E+01  -4.000000E+01  -4.000000E+01  -4.000000E+01  -4.000000E+01  -4.000000E+01  -4.000000E+01  -4.000000E+01  -4.000000E+01  -4.000000E+01  -4.000000E+01  -4.000000E+01  -4.000000E+01  -4.000000E+01  -4.000000E+01  -4.000000E+01  -4.000000E+01  -4.000000E+01  -4.000000E+01  -4.000000E+01  -4.000000E+01  -4.000000E+01  -4.000000E+01  -4.000000E+01  -4.000000E+01  -4.000000E+01  -4.000000E+01  -4.000000E+01  -4.000000E+01  -4.000000E+01  -4.000000E+01  -4.000000E+01  -4.000000E+01  -4.000000E+01  -4.000000E+01  -4.000000E+01  -4.000000E+01  -4.000000E+01  -4.000000E+01  -4.000000E+01  -4.000000E+01  -4.000000E+01  -4.000000E+01  -4.000000E+01  -4.000000E+01  -4.000000E+01  -4.000000E+01  -4.000000E+01  -4.000000E+01  -4.000000E+01  -4.000000E+01  -4.000000E+01  -4.000000E+01  -4.000000E+01  -4.000000E+01  -4.000000E+01  -4.000000E+01  -4.000000E+01  -4.000000E+01  -4.000000E+01  -4.000000E+01  -4.000000E+01  -4.000000E+01  -4.000000E+01  -4.000000E+01  -4.000000E+01  -4.000000E+01  -4.000000E+01  -4.000000E+01  -4.000000E+01  -4.000000E+01  -4.000000E+01  -4.000000E+01  -4.000000E+01  -4.000000E+01  -4.000000E+01  -4.000000E+01  -4.000000E+01  -4.000000E+01  -4.000000E+01  -4.000000E+01  -4.000000E+01
INTERNAL               1 (113G15.6)  -1 #botm Layer 3                  
  -6.000000E+01  -6.000000E+01  -6.000000E+01  -6.000000E+01  -6.000000E+01  -6.000000E+01  -6.000000E+01  -6.000000E+01  -6.000000E+01  -6.000000E+01  -6.000000E+01  -6.000000E+01  -6.000000E+01  -6.000000E+01  -6.000000E+01  -6.000000E+01  -6.000000E+01  -6.000000E+01  -6.000000E+01  -6.000000E+01  -6.000000E+01  -6.000000E+01  -6.000000E+01  -6.000000E+01  -6.000000E+01  -6.000000E+01  -6.000000E+01  -6.000000E+01  -6.000000E+01  -6.000000E+01  -6.000000E+01  -6.000000E+01  -6.000000E+01  -6.000000E+01  -6.000000E+01  -6.000000E+01  -6.000000E+01  -6.000000E+01  -6.000000E+01  -6.000000E+01  -6.000000E+01  -6.000000E+01  -6.000000E+01  -6.000000E+01  -6.000000E+01  -6.000000E+01  -6.000000E+01  -6.000000E+01  -6.000000E+01  -6.000000E+01  -6.000000E+01  -6.000000E+01  -6.000000E+01  -6.000000E+01  -6.000000E+01  -6.000000E+01  -6.000000E+01  -6.000000E+01  -6.000000E+01  -6.000000E+01  -6.000000E+01  -6.000000E+01  -6.000000E+01  -6.000000E+01  -6.000000E+01  -6.000000E+01  -6.000000E+01  -6.000000E+01  -6.000000E+01  -6.000000E+01  -6.000000E+01  -6.000000E+01  -6.000000E+01  -6.000000E+01  -6.000000E+01  -6.000000E+01  -6.000000E+01  -6.000000E+01  -6.000000E+01  -6.000000E+01  -6.000000E+01  -6.000000E+01  -6.000000E+01  -6.000000E+01  -6.000000E+01  -6.000000E+01  -6.000000E+01  -6.000000E+01  -6.000000E+01  -6.000000E+01  -6.000000E+01  -6.000000E+01  -6.000000E+01  -6.000000E+01  -6.000000E+01  -6.000000E+01  -6.000000E+01  -6.000000E+01  -6.000000E+01  -6.000000E+01  -6.000000E+01  -6.000000E+01  -6.000000E+01  -6.000000E+01  -6.000000E+01  -6.000000E+01  -6.000000E+01  -6.000000E+01  -6.000000E+01  -6.000000E+01  -6.000000E+01  -6.000000E+01  -6.000000E+01
INTERNAL               1 (113G15.6)  -1 #botm Layer 4                  
  -8.000000E+01  -8.000000E+01  -8.000000E+01  -8.000000E+01  -8.000000E+01  -8.000000E+01  -8.000000E+01  -8.000000E+01  -8.000000E+01  -8.000000E+01  -8.000000E+01  -8.000000E+01  -8.000000E+01  -8.000000E+01  -8.000000E+01  -8.000000E+01  -8.000000E+01  -8.000000E+01  -8.000000E+01  -8.000000E+01  -8.000000E+01  -8.000000E+01  -8.000000E+01  -8.000000E+01  -8.000000E+01  -8.000000E+01  -8.000000E+01  -8.000000E+01  -8.000000E+01  -8.000000E+01  -8.000000E+01  -8.000000E+01  -8.000000E+01  -8.000000E+01  -8.000000E+01  -8.000000E+01  -8.000000E+01  -8.000000E+01  -8.000000E+01  -8.000000E+01  -8.000000E+01  -8.000000E+01  -8.000000E+01  -8.000000E+01  -8.000000E+01  -8.000000E+01  -8.000000E+01  -8.000000E+01  -8.000000E+01  -8.000000E+01  -8.000000E+01  -8.000000E+01  -8.000000E+01  -8.000000E+01  -8.000000E+01  -8.000000E+01  -8.000000E+01  -8.000000E+01  -8.000000E+01  -8.000000E+01  -8.000000E+01  -8.000000E+01  -8.000000E+01  -8.000000E+01  -8.000000E+01  -8.000000E+01  -8.000000E+01  -8.000000E+01  -8.000000E+01  -8.000000E+01  -8.000000E+01  -8.000000E+01  -8.000000E+01  -8.000000E+01  -8.000000E+01  -8.000000E+01  -8.000000E+01  -8.000000E+01  -8.000000E+01  -8.000000E+01  -8.000000E+01  -8.000000E+01  -8.000000E+01  -8.000000E+01  -8.000000E+01  -8.000000E+01  -8.000000E+01  -8.000000E+01  -8.000000E+01  -8.000000E+01  -8.000000E+01  -8.000000E+01  -8.000000E+01  -8.000000E+01  -8.000000E+01  -8.000000E+01  -8.000000E+01  -8.000000E+01  -8.000000E+01  -8.000000E+01  -8.000000E+01  -8.000000E+01  -8.000000E+01  -8.000000E+01  -8.000000E+01  -8.000000E+01  -8.000000E+01  -8.000000E+01  -8.000000E+01  -8.000000E+01  -8.000000E+01  -8.000000E+01  -8.000000E+01
INTERNAL               1 (113G15.6)  -1 #botm Layer 5                  
  -1.000000E+02  -1.000000E+02  -1.000000E+02  -1.000000E+02  -1.000000E+02  -1.000000E+02  -1.000000E+02  -1.000000E+02  -1.000000E+02  -1.000000E+02  -1.000000E+02  -1.000000E+02  -1.000000E+02  -1.000000E+02  -1.000000E+02  -1.000000E+02  -1.000000E+02  -1.000000E+02  -1.000000E+02  -1.000000E+02  -1.000000E+02  -1.000000E+02  -1.000000E+02  -1.000000E+02  -1.000000E+02  -1.000000E+02  -1.000000E+02  -1.000000E+02  -1.000000E+02  -1.000000E+02  -1.000000E+02  -1.000000E+02  -1.000000E+02  -1.000000E+02  -1.000000E+02  -1.000000E+02  -1.000000E+02  -1.000000E+02  -1.000000E+02  -1.000000E+02  -1.000000E+02  -1.000000E+02  -1.000000E+02  -1.000000E+02  -1.000000E+02  -1.000000E+02  -1.000000E+02  -1.000000E+02  -1.000000E+02  -1.000000E+02  -1.000000E+02  -1.000000E+02  -1.000000E+02  -1.000000E+02  -1.000000E+02  -1.000000E+02  -1.000000E+02  -1.000000E+02  -1.000000E+02  -1.000000E+02  -1.000000E+02  -1.000000E+02  -1.000000E+02  -1.000000E+02  -1.000000E+02  -1.000000E+02  -1.000000E+02  -1.000000E+02  -1.000000E+02  -1.000000E+02  -1.000000E+02  -1.000000E+02  -1.000000E+02  -1.000000E+02  -1.000000E+02  -1.000000E+02  -1.000000E+02  -1.000000E+02  -1.000000E+02  -1.000000E+02  -1.000000E+02  -1.000000E+02  -1.000000E+02  -1.000000E+02  -1.000000E+02  -1.000000E+02  -1.000000E+02  -1.000000E+02  -1.000000E+02  -1.000000E+02  -1.000000E+02  -1.000000E+02  -1.000000E+02  -1.000000E+02  -1.000000E+02  -1.000000E+02  -1.000000E+02  -1.000000E+02  -1.000000E+02  -1.000000E+02  -1.000000E+02  -1.000000E+02  -1.000000E+02  -1.000000E+02  -1.000000E+02  -1.000000E+02  -1.000000E+02  -1.000000E+02  -1.000000E+02  -1.000000E+02  -1.000000E+02  -1.000000E+02  -1.000000E+02
INTERNAL               1 (113G15.6)  -1 #botm Layer 6                  
  -1.200000E+02  -1.200000E+02  -1.200000E+02  -1.200000E+02  -1.200000E+02  -1.200000E+02  -1.200000E+02  -1.200000E+02  -1.200000E+02  -1.200000E+02  -1.200000E+02  -1.200000E+02  -1.200000E+02  -1.200000E+02  -1.200000E+02  -1.200000E+02  -1.200000E+02  -1.200000E+02  -1.200000E+02  -1.200000E+02  -1.200000E+02  -1.200000E+02  -1.200000E+02  -1.200000E+02  -1.200000E+02  -1.200000E+02  -1.200000E+02  -1.200000E+02  -1.200000E+02  -1.200000E+02  -1.200000E+02  -1.200000E+02  -1.200000E+02  -1.200000E+02  -1.200000E+02  -1.200000E+02  -1.200000E+02  -1.200000E+02  -1.200000E+02  -1.200000E+02  -1.200000E+02  -1.200000E+02  -1.200000E+02  -1.200000E+02  -1.200000E+02  -1.200000E+02  -1.200000E+02  -1.200000E+02  -1.200000E+02  -1.200000E+02  -1.200000E+02  -1.200000E+02  -1.200000E+02  -1.200000E+02  -1.200000E+02  -1.200000E+02  -1.200000E+02  -1.200000E+02  -1.200000E+02  -1.200000E+02  -1.200000E+02  -1.200000E+02  -1.200000E+02  -1.200000E+02  -1.200000E+02  -1.200000E+02  -1.200000E+02  -1.200000E+02  -1.200000E+02  -1.200000E+02  -1.200000E+02  -1.200000E+02  -1.200000E+02  -1.200000E+02  -1.200000E+02  -1.200000E+02  -1.200000E+02  -1.200000E+02  -1.200000E+02  -1.200000E+02  -1.200000E+02  -1.200000E+02  -1.200000E+02  -1.200000E+02  -1.200000E+02  -1.200000E+02  -1.200000E+02  -1.200000E+02  -1.200000E+02  -1.200000E+02  -1.200000E+02  -1.200000E+02  -1.200000E+02  -1.200000E+02  -1.200000E+02  -1.200000E+02  -1.200000E+02  -1.200000E+02  -1.200000E+02  -1.200000E+02  -1.200000E+02  -1.200000E+02  -1.200000E+02  -1.200000E+02  -1.200000E+02  -1.200000E+02  -1.200000E+02  -1.200000E+02  -1.200000E+02  -1.200000E+02  -1.200000E+02  -1.200000E+02  -1.200000E+02
   1460.000000          1460  1.000000  SS 
   1460.000000          1460  1.000000  SS 
