# MODFLOW2005 Basic Package
#MODFLOW Data Set Created by Groundwater Vistas
#   

         0         1(25I3)                      -1     IBOUND Layer   1
9.9900e+02
         0     0.000(10e12.4)                    0     STARTING HEADS Layer   1
