# Name File for MODFLOW created on 1/23/2017 by ModelMuse Version 3.8.1.25
LIST             11 UzfTest.lst REPLACE
DATA(BINARY)      9 UzfTest.cbc REPLACE
DIS              12 UzfTest.dis OLD
BAS6             13 UzfTest.bas OLD
OC               39 UzfTest.oc OLD
DATA             37 UzfTest.fhd REPLACE
DATA             38 UzfTest.fdn REPLACE
PCG              18 UzfTest.pcg OLD
LPF              14 UzfTest.lpf OLD
CHD              17 UzfTest.chd OLD
SFR              29 UzfTest.sfr OLD
DATA          20205 UzfTest.sfrg1 REPLACE
DATA          20206 UzfTest.sfrg2 REPLACE
UZF              31 UzfTest.uzf OLD
GAGE             40 UzfTest.gag OLD
