# Basic package file for MODFLOW, generated by Flopy.
 FREE
OPEN/CLOSE           lake_example_ib01.ref               1     (FREE) -1 ibound Layer 1                
OPEN/CLOSE           lake_example_ib02.ref               1     (FREE) -1 ibound Layer 2                
OPEN/CLOSE           lake_example_ib03.ref               1     (FREE) -1 ibound Layer 3                
OPEN/CLOSE           lake_example_ib04.ref               1     (FREE) -1 ibound Layer 4                
OPEN/CLOSE           lake_example_ib05.ref               1     (FREE) -1 ibound Layer 5                
OPEN/CLOSE           lake_example_ib06.ref               1     (FREE) -1 ibound Layer 6                
OPEN/CLOSE           lake_example_ib07.ref               1     (FREE) -1 ibound Layer 7                
OPEN/CLOSE           lake_example_ib08.ref               1     (FREE) -1 ibound Layer 8                
OPEN/CLOSE           lake_example_ib09.ref               1     (FREE) -1 ibound Layer 9                
OPEN/CLOSE           lake_example_ib10.ref               1     (FREE) -1 ibound Layer 10               
        -999.99
OPEN/CLOSE           lake_example_strt.ref               1     (FREE) -1 strt Layer 1                  
OPEN/CLOSE           lake_example_strt.ref               1     (FREE) -1 strt Layer 2                  
OPEN/CLOSE           lake_example_strt.ref               1     (FREE) -1 strt Layer 3                  
OPEN/CLOSE           lake_example_strt.ref               1     (FREE) -1 strt Layer 4                  
OPEN/CLOSE           lake_example_strt.ref               1     (FREE) -1 strt Layer 5                  
OPEN/CLOSE           lake_example_strt.ref               1     (FREE) -1 strt Layer 6                  
OPEN/CLOSE           lake_example_strt.ref               1     (FREE) -1 strt Layer 7                  
OPEN/CLOSE           lake_example_strt.ref               1     (FREE) -1 strt Layer 8                  
OPEN/CLOSE           lake_example_strt.ref               1     (FREE) -1 strt Layer 9                  
OPEN/CLOSE           lake_example_strt.ref               1     (FREE) -1 strt Layer 10                 
