                                  MODFLOW-NWT-SWR1 
      U.S. GEOLOGICAL SURVEY MODULAR FINITE-DIFFERENCE GROUNDWATER-FLOW MODEL
                            VERSION 1.0.9 07/01/2014
                    BASED ON MODFLOW-2005 VERSION 1.11.00 08/30/2013

 LIST FILE: swr011.lst
                         UNIT    7

 OPENING swr011.bas
 FILE TYPE:BAS6   UNIT    1   STATUS:OLD    
 FORMAT:FORMATTED              ACCESS:SEQUENTIAL          

 OPENING swr011.dis
 FILE TYPE:DIS   UNIT   29   STATUS:OLD    
 FORMAT:FORMATTED              ACCESS:SEQUENTIAL          

 OPENING swr011.lpf
 FILE TYPE:LPF   UNIT   11   STATUS:OLD    
 FORMAT:FORMATTED              ACCESS:SEQUENTIAL          

 OPENING swr011.oc
 FILE TYPE:OC   UNIT   22   STATUS:OLD    
 FORMAT:FORMATTED              ACCESS:SEQUENTIAL          

 OPENING swr011.pcg
 FILE TYPE:PCG   UNIT   19   STATUS:OLD    
 FORMAT:FORMATTED              ACCESS:SEQUENTIAL          

 OPENING swr011.swr
 FILE TYPE:SWR   UNIT   61   STATUS:OLD    
 FORMAT:FORMATTED              ACCESS:SEQUENTIAL          

 OPENING swr011.flow
 FILE TYPE:DATA(BINARY)   UNIT  101   STATUS:UNKNOWN
 FORMAT:BINARY                 ACCESS:SEQUENTIAL          

 OPENING swr011.stg
 FILE TYPE:DATA(BINARY)   UNIT  102   STATUS:UNKNOWN
 FORMAT:BINARY                 ACCESS:SEQUENTIAL          

 OPENING swr011.vel
 FILE TYPE:DATA(BINARY)   UNIT  103   STATUS:UNKNOWN
 FORMAT:BINARY                 ACCESS:SEQUENTIAL          

 BAS -- BASIC PACKAGE, VERSION 7, 5/2/2005 INPUT READ FROM UNIT    1
 
 MODFLOW was compiled using mixed precision
 Precision of REAL variables:           6
 Precision of DOUBLE PRECISION variables:          15

 DISCRETIZATION INPUT DATA READ FROM UNIT   29
 # MODFLOW2000 Discretization File
    1 LAYERS        11 ROWS         1 COLUMNS
    1 STRESS PERIOD(S) IN SIMULATION
 MODEL TIME UNIT IS SECONDS
 MODEL LENGTH UNIT IS METERS
  Confining bed flag for each layer:
   0

                     DELR =   50.0000    

                     DELC =   500.000    



           TOP ELEVATION OF LAYER 1
 READING ON UNIT   29 WITH FORMAT: (11e6.2)            

   MODEL LAYER BOTTOM EL. =  -5.00000     FOR LAYER   1


 STRESS PERIOD     LENGTH       TIME STEPS     MULTIPLIER FOR DELT    SS FLAG
 ----------------------------------------------------------------------------
        1         259200.0       2160                    1.000         TR

 TRANSIENT SIMULATION



 
 # MODFLOW2005 Basic Package                                                     
 #MODFLOW Data Set Created by Groundwater Vistas                                 
 #

           BOUNDARY ARRAY =              1 FOR LAYER   1

 AQUIFER HEAD WILL BE SET TO   999.00     AT ALL NO-FLOW NODES (IBOUND=0).

             INITIAL HEAD =   4.50000     FOR LAYER   1

 OUTPUT CONTROL IS SPECIFIED ONLY AT TIME STEPS FOR WHICH OUTPUT IS DESIRED
 HEAD PRINT FORMAT CODE IS   0    DRAWDOWN PRINT FORMAT CODE IS   0
 HEADS WILL BE SAVED ON UNIT    0    DRAWDOWNS WILL BE SAVED ON UNIT    0

 LPF -- LAYER-PROPERTY FLOW PACKAGE, VERSION 7, 5/2/2005
         INPUT READ FROM UNIT   11
 # MODFLOW2000 Layer Property Flow (LPF) Package
 HEAD AT CELLS THAT CONVERT TO DRY= -1.00000E+30
 No named parameters

   LAYER FLAGS:
 LAYER       LAYTYP        LAYAVG         CHANI        LAYVKA        LAYWET
 ---------------------------------------------------------------------------
    1             1             0     1.000E+00             0             0

   INTERPRETATION OF LAYER FLAGS:
                        INTERBLOCK     HORIZONTAL    DATA IN
         LAYER TYPE   TRANSMISSIVITY   ANISOTROPY   ARRAY VKA   WETTABILITY
 LAYER      (LAYTYP)      (LAYAVG)       (CHANI)      (LAYVKA)      (LAYWET)
 ---------------------------------------------------------------------------
    1   CONVERTIBLE      HARMONIC     1.000E+00    VERTICAL K  NON-WETTABLE

 WETTING CAPABILITY IS NOT ACTIVE IN ANY LAYER

    HYD. COND. ALONG ROWS =   5.00000     FOR LAYER   1

      VERTICAL HYD. COND. =   5.00000     FOR LAYER   1

         SPECIFIC STORAGE =  1.000000     FOR LAYER   1

           SPECIFIC YIELD =  0.200000     FOR LAYER   1

 PCG -- CONJUGATE-GRADIENT SOLUTION PACKAGE, VERSION 7, 5/2/2005
 MAXIMUM OF    100 CALLS OF SOLUTION ROUTINE
 MAXIMUM OF     25 INTERNAL ITERATIONS PER CALL TO SOLUTION ROUTINE
 MATRIX PRECONDITIONING TYPE :    1
 IHCOFADD option -- When an active cell is surrounded by dry cells, convert
 the cell to dry only if storage and head-dependent boundary flow are 0.



                                    SOLUTION BY THE CONJUGATE-GRADIENT METHOD
                                   -------------------------------------------
                    MAXIMUM NUMBER OF CALLS TO PCG ROUTINE =      100
                        MAXIMUM ITERATIONS PER CALL TO PCG =       25
                               MATRIX PRECONDITIONING TYPE =        1
        RELAXATION FACTOR (ONLY USED WITH PRECOND. TYPE 1) =    0.10000E+01
 PARAMETER OF POLYNOMIAL PRECOND. = 2 (2) OR IS CALCULATED :        2
                         HEAD CHANGE CRITERION FOR CLOSURE =    0.10000E-02
                     RESIDUAL CHANGE CRITERION FOR CLOSURE =    0.10000E+01
            PCG HEAD AND RESIDUAL CHANGE PRINTOUT INTERVAL =        5
     PRINTING FROM SOLVER IS LIMITED(1) OR SUPPRESSED (>1) =        0
                            STEADY-STATE DAMPING PARAMETER =    0.10000E+01
                               TRANSIENT DAMPING PARAMETER =    0.10000E+01

 SWR -- SURFACE-WATER ROUTING PACKAGE,
 $Id: gwf2swr7.f 1.03 2013-09-24 15:00:00Z jdhughes $            
 INPUT READ FROM UNIT   61

 ...READING SWR1 PROCESS DATASET 1A

 ...READING SWR1 PROCESS DATASET 2

 ...READING SWR1 PROCESS DATASET 3

 NUMBER OF REACHES                         =   11
 SURFACE WATER ONLY SIMULATION (>0=TRUE)   =    1
 LENGTH CONVERSION FACTOR                  =  1.0000000    
 TIME CONVERSION FACTOR                    =  1.0000000    
 MINIMUM GRADIENT FOR FLOW                 =  0.1000000E-11
 MAXIMUM DEPTH FOR SCALING REACH OUTFLOW   =  0.1000000E-01
 MINIMUM DEPTH FOR REACH OUTFLOW           =  0.1000000E-02
 DIFFUSIVE-WAVE APPROX. SPATIAL WEIGHTING  = CENTRAL             
 DEPTH SCALING                             = SIGMOID             
 TWO-DIMENSIONAL COORD.-INVARIANT APPROACH = EXPLICIT            
 MINIMUM ROUTING TIME STEP LENGTH          =   120.0000    
 MAXIMUM ROUTING TIME STEP LENGTH          =   120.0000    
 INITIAL ROUTING TIME STEP LENGTH          =   120.0000    
 OUTPUT PRINT INCREMENT                    =   120.0000    
 ADAPTIVE TIME STEP INCREMENT (RTMULT)     =  1.0000000    
 ADAPTIVE TIME STEP INCREMENT FREQUENCY    =    1
 MAXIMUM RAINFALL      PER ROUTING STEP    =   0.000000    
 MAXIMUM STAGE  CHANGE PER ROUTING STEP    =   0.000000    
 MAXIMUM INFLOW CHANGE PER ROUTING STEP    =   0.000000    

 CBC OUTPUT UNIT (ISWRCBC)                 =    0
 GROUP FLOW TERMS OUTPUT UNIT (ISWRPRGF)   = -101
 REACH STAGE OUTPUT UNIT (ISWRPSTG)        = -102
 REACH AQ-RCH FLOW OUTPUT UNIT (ISWRPQAQ)  =    0
 REACH LATERAL FLOW OUTPUT UNIT (ISWRPQM)  = -103
 STRUCTURE FLOW OUTPUT UNIT (ISWRPSTR)     =    0
 SUMMARY VELOCITY AND FROUDE INFORMATION   =    T


               --- SWR SOLVER PARAMETERS ---
 SOLVER = LU DECOMPOSITION USING CROUT’S ALGORITHM
 PRECONDITIONER                            = NONE                
 JACOBIAN SCALING                          = NO SCALING          
 MAXIMUM NUMBER OF OUTER ITERATIONS        =   51
 MAXIMUM NUMBER OF INNER ITERATIONS        =    1
 NON-CONVERGENCE CONT.OF SWR AND MODFLOW   =    F
 MAXIMUM STAGE    TOLERANCE (TOLS)         =  0.1000000E-08
 MAXIMUM ROOT     TOLERANCE (TOLR)         =  0.1000000E-02
 INEXACT NEWTON APPROACH (INEXCTNWT)       =    F
 MAXIMUM AQ-RCH FLOW TOLERANCE (TOLA)      =  0.0000000E+00
 STEADY-STATE DAMPENING PARAMETER (DAMPSS) =  0.1000000E+01
 TRANSIENT DAMPENING PARAMETER (DAMPTR)    =  0.1000000E+01
 PSEUDO-TRANSIENT CONTINUATION APPROACH    =    F
 SOLVER OUTPUT FREQUENCY (IPRSWR)          =  999
 CONVERGENCE PRINTING FLAG (MUTSWR)        =    3
   0 - MAXIMUM RESIDUAL EACH SWR TIMESTEP
   1 - TOTAL NUMBER OF ITERATIONS EACH SWR TIMESTEP
   2 - NO PRINTING
   3 - PRINTING IF CONVERGENCE FAILS
 BACKTRACKING ALLOWED                      =    T
 MAXIMUM BACKTRACKING ITERATIONS (IBT)     =   10
 BACKTRACKING OUTPUT FREQUENCY  (IBTPRT)   =    1


 SURFACE WATER ONLY SIMULATION
 SETTING MODFLOW IBOUND TO ZERO FOR ALL CELLS

 ...READING SWR1 PROCESS DATASET 4A

 ...READING SWR1 PROCESS DATASET 4B

 -----------------------------------------------------------
 FULL REACH CONNECTIVITY FOR EACH REACH

 -----------------------------------------------------------
 REACH  =     1
               -----------------CONNECTIONS-----------------
                            1
 -----------------------------------------------------------
 REACHES           1 TO     2
 -----------------------------------------------------------

 -----------------------------------------------------------
 REACH  =     2
               -----------------CONNECTIONS-----------------
                            1              2
 -----------------------------------------------------------
 REACHES           2 TO     1     2 TO     3
 -----------------------------------------------------------

 -----------------------------------------------------------
 REACH  =     3
               -----------------CONNECTIONS-----------------
                            1              2
 -----------------------------------------------------------
 REACHES           3 TO     2     3 TO     4
 -----------------------------------------------------------

 -----------------------------------------------------------
 REACH  =     4
               -----------------CONNECTIONS-----------------
                            1              2
 -----------------------------------------------------------
 REACHES           4 TO     3     4 TO     5
 -----------------------------------------------------------

 -----------------------------------------------------------
 REACH  =     5
               -----------------CONNECTIONS-----------------
                            1              2
 -----------------------------------------------------------
 REACHES           5 TO     4     5 TO     6
 -----------------------------------------------------------

 -----------------------------------------------------------
 REACH  =     6
               -----------------CONNECTIONS-----------------
                            1              2
 -----------------------------------------------------------
 REACHES           6 TO     5     6 TO     7
 -----------------------------------------------------------

 -----------------------------------------------------------
 REACH  =     7
               -----------------CONNECTIONS-----------------
                            1              2
 -----------------------------------------------------------
 REACHES           7 TO     6     7 TO     8
 -----------------------------------------------------------

 -----------------------------------------------------------
 REACH  =     8
               -----------------CONNECTIONS-----------------
                            1              2
 -----------------------------------------------------------
 REACHES           8 TO     7     8 TO     9
 -----------------------------------------------------------

 -----------------------------------------------------------
 REACH  =     9
               -----------------CONNECTIONS-----------------
                            1              2
 -----------------------------------------------------------
 REACHES           9 TO     8     9 TO    10
 -----------------------------------------------------------

 -----------------------------------------------------------
 REACH  =    10
               -----------------CONNECTIONS-----------------
                            1              2
 -----------------------------------------------------------
 REACHES          10 TO     9    10 TO    11
 -----------------------------------------------------------

 -----------------------------------------------------------
 REACH  =    11
               -----------------CONNECTIONS-----------------
                            1
 -----------------------------------------------------------
 REACHES          11 TO    10
 -----------------------------------------------------------


 TIME-INVARIANT SURFACE-WATER ROUTING REACH DATA
  REACH IROUTETYPE SOLUTION METHOD      IRGNUM    IRG    LAY    ROW    COL       DLEN
 --------------------------------------------------------------------------------------------------
      1          3 DIFFUSIVE-WAVE            1      1      1      1      1   500.    
      2          3 DIFFUSIVE-WAVE            2      2      1      2      1   500.    
      3          3 DIFFUSIVE-WAVE            3      3      1      3      1   500.    
      4          3 DIFFUSIVE-WAVE            4      4      1      4      1   500.    
      5          3 DIFFUSIVE-WAVE            5      5      1      5      1   500.    
      6          3 DIFFUSIVE-WAVE            6      6      1      6      1   500.    
      7          3 DIFFUSIVE-WAVE            7      7      1      7      1   500.    
      8          3 DIFFUSIVE-WAVE            8      8      1      8      1   500.    
      9          3 DIFFUSIVE-WAVE            9      9      1      9      1   500.    
     10          3 DIFFUSIVE-WAVE           10     10      1     10      1   500.    
     11          3 DIFFUSIVE-WAVE           11     11      1     11      1   500.    


 SWR REACH GROUPS: REACHES IN REACH GROUP
 ---------------------------------------------------------------------
 REACH GROUP =     1 IRGNUM =     1    REACHES     1
 REACH GROUP =     2 IRGNUM =     2    REACHES     2
 REACH GROUP =     3 IRGNUM =     3    REACHES     3
 REACH GROUP =     4 IRGNUM =     4    REACHES     4
 REACH GROUP =     5 IRGNUM =     5    REACHES     5
 REACH GROUP =     6 IRGNUM =     6    REACHES     6
 REACH GROUP =     7 IRGNUM =     7    REACHES     7
 REACH GROUP =     8 IRGNUM =     8    REACHES     8
 REACH GROUP =     9 IRGNUM =     9    REACHES     9
 REACH GROUP =    10 IRGNUM =    10    REACHES    10
 REACH GROUP =    11 IRGNUM =    11    REACHES    11
1
                            STRESS PERIOD NO.    1, LENGTH =   259200.0    
                            -----------------------------------------------

                              NUMBER OF TIME STEPS =  2160

                               MULTIPLIER FOR DELT =     1.000

                            INITIAL TIME STEP SIZE =   120.0000    

 ...READING SWR1 PROCESS DATASET 5

 ...READING SWR1 PROCESS DATASET 6


  SUMMARY OF SWR REACH BOUNDARY CONDITIONS
        IRG   INACTIVE   CONSTANT     ACTIVE
 ---------- ---------- ---------- ----------
          1          0          0          1
          2          0          0          1
          3          0          0          1
          4          0          0          1
          5          0          0          1
          6          0          0          1
          7          0          0          1
          8          0          0          1
          9          0          0          1
         10          0          0          1
         11          0          0          1


                         CONSTANT STAGE/INACTIVE REACH GROUPS
 ------------------------------------------------------------------------------------------
 ALL REACHES ACTIVE


 ...READING SWR1 PROCESS DATASET 9B



             2D LATERAL INFLOW DATA
 READING ON UNIT   61 WITH FORMAT: (11E12.4)           

           1
 ...........
   1    9.96    
   2    0.00    
   3    0.00    
   4    0.00    
   5    0.00    
   6    0.00    
   7    0.00    
   8    0.00    
   9    0.00    
  10    0.00    
  11    0.00    

 SURFACE-WATER ROUTING BOUNDARY DATA 
      REACH    ISWRBND BND TYPE       
 ------------------------------------
          1          1 ACTIVE         
          2          1 ACTIVE         
          3          1 ACTIVE         
          4          1 ACTIVE         
          5          1 ACTIVE         
          6          1 ACTIVE         
          7          1 ACTIVE         
          8          1 ACTIVE         
          9          1 ACTIVE         
         10          1 ACTIVE         
         11          1 ACTIVE         

 ...READING SWR1 PROCESS DATASET 10

 ...READING SWR1 PROCESS DATASET 11


 SURFACE-WATER ROUTING GENERIC GEOMETRY DATA FOR STRESS PERIOD         1

   GEO ITEM    IGEONUM   IGEOTYPE    IGCNDOP    NGEOPTS   GMANNING     GWIDTH     GBELEV    GSSLOPE   CONDUCT.   LEAKANCE     GCNDLN    GETEXTD
 ----------------------------------------------------------------------------------------------------------------------------------------------
          1          1          1          0          1  0.500E-01   50.0       0.00                 1.000                                     


 REACH RATING CURVE DATA FOR STRESS PERIOD
 ------------------------------------------------------------------------------------------

 REACH   =     1
 LAYSTR  =     1
 LAYEND  =     1
          N   ELEVATION [L]  XSECTAREA [L2]     VOLUME [L3] WET. PERIM. [L]   TOP WIDTH [L] SURF. AREA [L2]
 ---------- --------------- --------------- --------------- --------------- --------------- ---------------
          1   0.5250000        0.000000        0.000000        0.000000        0.000000        0.000000    
          2   0.5250010       0.5000000E-04   0.2500000E-01    50.00000        50.00000        25000.00    
          3   0.5775011        2.625055        1312.527        50.10500        50.00000        25000.00    
          4   0.6300012        5.250060        2625.030        50.21000        50.00000        25000.00    
          5   0.6825013        7.875064        3937.532        50.31500        50.00000        25000.00    
          6   0.7350014        10.50007        5250.035        50.42000        50.00000        25000.00    
          7   0.7875015        13.12507        6562.537        50.52500        50.00000        25000.00    
          8   0.8400016        15.75008        7875.039        50.63000        50.00000        25000.00    
          9   0.8925017        18.37508        9187.542        50.73500        50.00000        25000.00    
         10   0.9450018        21.00009        10500.04        50.84000        50.00000        25000.00    
         11   0.9975019        23.62509        11812.55        50.94500        50.00000        25000.00    
         12    1.050000        26.25000        13125.00        51.05000        50.00000        25000.00    
         13    1.050001        26.25005        13125.02        51.05000        50.00000        25000.00    
         14    11.05000        526.2500        263125.0        51.05000        50.00000        25000.00    

 REACH   =     2
 LAYSTR  =     1
 LAYEND  =     1
          N   ELEVATION [L]  XSECTAREA [L2]     VOLUME [L3] WET. PERIM. [L]   TOP WIDTH [L] SURF. AREA [L2]
 ---------- --------------- --------------- --------------- --------------- --------------- ---------------
          1   0.4750000        0.000000        0.000000        0.000000        0.000000        0.000000    
          2   0.4750010       0.5000000E-04   0.2500000E-01    50.00000        50.00000        25000.00    
          3   0.5225011        2.375055        1187.527        50.09500        50.00000        25000.00    
          4   0.5700012        4.750060        2375.030        50.19000        50.00000        25000.00    
          5   0.6175013        7.125065        3562.532        50.28500        50.00000        25000.00    
          6   0.6650014        9.500070        4750.035        50.38000        50.00000        25000.00    
          7   0.7125015        11.87507        5937.537        50.47500        50.00000        25000.00    
          8   0.7600016        14.25008        7125.040        50.57000        50.00000        25000.00    
          9   0.8075017        16.62508        8312.542        50.66500        50.00000        25000.00    
         10   0.8550018        19.00009        9500.045        50.76000        50.00000        25000.00    
         11   0.9025019        21.37509        10687.55        50.85500        50.00000        25000.00    
         12   0.9500000        23.75000        11875.00        50.95000        50.00000        25000.00    
         13   0.9500010        23.75005        11875.02        50.95000        50.00000        25000.00    
         14    10.95000        523.7500        261875.0        50.95000        50.00000        25000.00    

 REACH   =     3
 LAYSTR  =     1
 LAYEND  =     1
          N   ELEVATION [L]  XSECTAREA [L2]     VOLUME [L3] WET. PERIM. [L]   TOP WIDTH [L] SURF. AREA [L2]
 ---------- --------------- --------------- --------------- --------------- --------------- ---------------
          1   0.4250000        0.000000        0.000000        0.000000        0.000000        0.000000    
          2   0.4250010       0.5000000E-04   0.2500000E-01    50.00000        50.00000        25000.00    
          3   0.4675011        2.125055        1062.528        50.08500        50.00000        25000.00    
          4   0.5100012        4.250060        2125.030        50.17000        50.00000        25000.00    
          5   0.5525013        6.375065        3187.533        50.25500        50.00000        25000.00    
          6   0.5950014        8.500070        4250.035        50.34000        50.00000        25000.00    
          7   0.6375015        10.62508        5312.538        50.42500        50.00000        25000.00    
          8   0.6800016        12.75008        6375.040        50.51000        50.00000        25000.00    
          9   0.7225017        14.87509        7437.543        50.59500        50.00000        25000.00    
         10   0.7650018        17.00009        8500.045        50.68000        50.00000        25000.00    
         11   0.8075019        19.12510        9562.548        50.76500        50.00000        25000.00    
         12   0.8500000        21.25000        10625.00        50.85000        50.00000        25000.00    
         13   0.8500010        21.25005        10625.03        50.85000        50.00000        25000.00    
         14    10.85000        521.2500        260625.0        50.85000        50.00000        25000.00    

 REACH   =     4
 LAYSTR  =     1
 LAYEND  =     1
          N   ELEVATION [L]  XSECTAREA [L2]     VOLUME [L3] WET. PERIM. [L]   TOP WIDTH [L] SURF. AREA [L2]
 ---------- --------------- --------------- --------------- --------------- --------------- ---------------
          1   0.3750000        0.000000        0.000000        0.000000        0.000000        0.000000    
          2   0.3750010       0.5000000E-04   0.2500000E-01    50.00000        50.00000        25000.00    
          3   0.4125011        1.875055        937.5275        50.07500        50.00000        25000.00    
          4   0.4500012        3.750060        1875.030        50.15000        50.00000        25000.00    
          5   0.4875013        5.625065        2812.532        50.22500        50.00000        25000.00    
          6   0.5250014        7.500070        3750.035        50.30000        50.00000        25000.00    
          7   0.5625015        9.375075        4687.537        50.37500        50.00000        25000.00    
          8   0.6000016        11.25008        5625.040        50.45000        50.00000        25000.00    
          9   0.6375017        13.12509        6562.543        50.52500        50.00000        25000.00    
         10   0.6750018        15.00009        7500.045        50.60000        50.00000        25000.00    
         11   0.7125019        16.87510        8437.548        50.67500        50.00000        25000.00    
         12   0.7500000        18.75000        9375.000        50.75000        50.00000        25000.00    
         13   0.7500010        18.75005        9375.025        50.75000        50.00000        25000.00    
         14    10.75000        518.7500        259375.0        50.75000        50.00000        25000.00    

 REACH   =     5
 LAYSTR  =     1
 LAYEND  =     1
          N   ELEVATION [L]  XSECTAREA [L2]     VOLUME [L3] WET. PERIM. [L]   TOP WIDTH [L] SURF. AREA [L2]
 ---------- --------------- --------------- --------------- --------------- --------------- ---------------
          1   0.3250000        0.000000        0.000000        0.000000        0.000000        0.000000    
          2   0.3250010       0.5000000E-04   0.2500000E-01    50.00000        50.00000        25000.00    
          3   0.3575011        1.625055        812.5274        50.06500        50.00000        25000.00    
          4   0.3900012        3.250060        1625.030        50.13000        50.00000        25000.00    
          5   0.4225013        4.875065        2437.532        50.19500        50.00000        25000.00    
          6   0.4550014        6.500070        3250.035        50.26000        50.00000        25000.00    
          7   0.4875015        8.125074        4062.537        50.32500        50.00000        25000.00    
          8   0.5200016        9.750079        4875.040        50.39000        50.00000        25000.00    
          9   0.5525017        11.37508        5687.542        50.45500        50.00000        25000.00    
         10   0.5850018        13.00009        6500.045        50.52000        50.00000        25000.00    
         11   0.6175019        14.62509        7312.547        50.58500        50.00000        25000.00    
         12   0.6500000        16.25000        8124.999        50.65000        50.00000        25000.00    
         13   0.6500010        16.25005        8125.024        50.65000        50.00000        25000.00    
         14    10.65000        516.2500        258125.0        50.65000        50.00000        25000.00    

 REACH   =     6
 LAYSTR  =     1
 LAYEND  =     1
          N   ELEVATION [L]  XSECTAREA [L2]     VOLUME [L3] WET. PERIM. [L]   TOP WIDTH [L] SURF. AREA [L2]
 ---------- --------------- --------------- --------------- --------------- --------------- ---------------
          1   0.2750000        0.000000        0.000000        0.000000        0.000000        0.000000    
          2   0.2750010       0.5000000E-04   0.2500000E-01    50.00000        50.00000        25000.00    
          3   0.3025011        1.375055        687.5275        50.05500        50.00000        25000.00    
          4   0.3300012        2.750060        1375.030        50.11000        50.00000        25000.00    
          5   0.3575013        4.125065        2062.533        50.16500        50.00000        25000.00    
          6   0.3850014        5.500070        2750.035        50.22000        50.00000        25000.00    
          7   0.4125015        6.875075        3437.538        50.27500        50.00000        25000.00    
          8   0.4400016        8.250080        4125.040        50.33000        50.00000        25000.00    
          9   0.4675017        9.625085        4812.543        50.38500        50.00000        25000.00    
         10   0.4950018        11.00009        5500.045        50.44000        50.00000        25000.00    
         11   0.5225019        12.37510        6187.548        50.49500        50.00000        25000.00    
         12   0.5500000        13.75000        6875.000        50.55000        50.00000        25000.00    
         13   0.5500010        13.75005        6875.025        50.55000        50.00000        25000.00    
         14    10.55000        513.7500        256875.0        50.55000        50.00000        25000.00    

 REACH   =     7
 LAYSTR  =     1
 LAYEND  =     1
          N   ELEVATION [L]  XSECTAREA [L2]     VOLUME [L3] WET. PERIM. [L]   TOP WIDTH [L] SURF. AREA [L2]
 ---------- --------------- --------------- --------------- --------------- --------------- ---------------
          1   0.2250000        0.000000        0.000000        0.000000        0.000000        0.000000    
          2   0.2250010       0.5000000E-04   0.2500000E-01    50.00000        50.00000        25000.00    
          3   0.2475011        1.125055        562.5275        50.04500        50.00000        25000.00    
          4   0.2700012        2.250060        1125.030        50.09000        50.00000        25000.00    
          5   0.2925013        3.375065        1687.532        50.13500        50.00000        25000.00    
          6   0.3150014        4.500070        2250.035        50.18000        50.00000        25000.00    
          7   0.3375015        5.625075        2812.537        50.22500        50.00000        25000.00    
          8   0.3600016        6.750080        3375.040        50.27000        50.00000        25000.00    
          9   0.3825017        7.875085        3937.542        50.31500        50.00000        25000.00    
         10   0.4050018        9.000090        4500.045        50.36000        50.00000        25000.00    
         11   0.4275019        10.12509        5062.547        50.40500        50.00000        25000.00    
         12   0.4500000        11.25000        5625.000        50.45000        50.00000        25000.00    