# MODFLOW2000 General Head Boundary Package
PARAMETER  0  0
        24        00
        08         4                      Stress Period 01
         1         1         1     1.534 1.000e+04         0
         1         2         1     1.534 1.000e+04         0
         1         3         1     1.534 1.000e+04         0
         1         4         1     1.534 1.000e+04         0
         1         5         1     1.534 1.000e+04         0
         1         6         1     1.534 1.000e+04         0
         1         5         6     0.510 1.000e+03         0
         2         5         6     0.610 1.000e+03         0
-1                                                       #STRESS PERIOD 001
-1                                                       #STRESS PERIOD 002
-1                                                       #STRESS PERIOD 003
-1                                                       #STRESS PERIOD 004
-1                                                       #STRESS PERIOD 005
-1                                                       #STRESS PERIOD 006
-1                                                       #STRESS PERIOD 007
-1                                                       #STRESS PERIOD 008
-1                                                       #STRESS PERIOD 009
-1                                                       #STRESS PERIOD 010
-1                                                       #STRESS PERIOD 011
-1                                                       #STRESS PERIOD 012
-1                                                       #STRESS PERIOD 013
-1                                                       #STRESS PERIOD 014
-1                                                       #STRESS PERIOD 015
-1                                                       #STRESS PERIOD 016
-1                                                       #STRESS PERIOD 017
-1                                                       #STRESS PERIOD 018
-1                                                       #STRESS PERIOD 019
-1                                                       #STRESS PERIOD 020
-1                                                       #STRESS PERIOD 021
-1                                                       #STRESS PERIOD 022
-1                                                       #STRESS PERIOD 023
-1                                                       #STRESS PERIOD 024
-1                                                       #STRESS PERIOD 025
-1                                                       #STRESS PERIOD 026
-1                                                       #STRESS PERIOD 027
-1                                                       #STRESS PERIOD 028
-1                                                       #STRESS PERIOD 029
-1                                                       #STRESS PERIOD 030
-1                                                       #STRESS PERIOD 031
-1                                                       #STRESS PERIOD 032
-1                                                       #STRESS PERIOD 033
-1                                                       #STRESS PERIOD 034
-1                                                       #STRESS PERIOD 035
-1                                                       #STRESS PERIOD 036
-1                                                       #STRESS PERIOD 037
-1                                                       #STRESS PERIOD 038
-1                                                       #STRESS PERIOD 039
-1                                                       #STRESS PERIOD 040
-1                                                       #STRESS PERIOD 041
-1                                                       #STRESS PERIOD 042
-1                                                       #STRESS PERIOD 043
-1                                                       #STRESS PERIOD 044
-1                                                       #STRESS PERIOD 045
-1                                                       #STRESS PERIOD 046
-1                                                       #STRESS PERIOD 047
-1                                                       #STRESS PERIOD 048
-1                                                       #STRESS PERIOD 049
-1                                                       #STRESS PERIOD 050
-1                                                       #STRESS PERIOD 051
-1                                                       #STRESS PERIOD 052
-1                                                       #STRESS PERIOD 053
-1                                                       #STRESS PERIOD 054
-1                                                       #STRESS PERIOD 055
-1                                                       #STRESS PERIOD 056
-1                                                       #STRESS PERIOD 057
-1                                                       #STRESS PERIOD 058
-1                                                       #STRESS PERIOD 059
-1                                                       #STRESS PERIOD 060
-1                                                       #STRESS PERIOD 061
-1                                                       #STRESS PERIOD 062
-1                                                       #STRESS PERIOD 063
-1                                                       #STRESS PERIOD 064
-1                                                       #STRESS PERIOD 065
-1                                                       #STRESS PERIOD 066
-1                                                       #STRESS PERIOD 067
-1                                                       #STRESS PERIOD 068
-1                                                       #STRESS PERIOD 069
-1                                                       #STRESS PERIOD 070
-1                                                       #STRESS PERIOD 071
-1                                                       #STRESS PERIOD 072
-1                                                       #STRESS PERIOD 073
-1                                                       #STRESS PERIOD 074
-1                                                       #STRESS PERIOD 075
-1                                                       #STRESS PERIOD 076
-1                                                       #STRESS PERIOD 077
-1                                                       #STRESS PERIOD 078
-1                                                       #STRESS PERIOD 079
-1                                                       #STRESS PERIOD 080
-1                                                       #STRESS PERIOD 081
-1                                                       #STRESS PERIOD 082
-1                                                       #STRESS PERIOD 083
-1                                                       #STRESS PERIOD 084
-1                                                       #STRESS PERIOD 085
-1                                                       #STRESS PERIOD 086
-1                                                       #STRESS PERIOD 087
-1                                                       #STRESS PERIOD 088
-1                                                       #STRESS PERIOD 089
-1                                                       #STRESS PERIOD 090
-1                                                       #STRESS PERIOD 091
-1                                                       #STRESS PERIOD 092
-1                                                       #STRESS PERIOD 093
-1                                                       #STRESS PERIOD 094
-1                                                       #STRESS PERIOD 095
-1                                                       #STRESS PERIOD 096
-1                                                       #STRESS PERIOD 097
-1                                                       #STRESS PERIOD 098
-1                                                       #STRESS PERIOD 099
-1                                                       #STRESS PERIOD 100
-1                                                       #STRESS PERIOD 101
-1                                                       #STRESS PERIOD 102
-1                                                       #STRESS PERIOD 103
-1                                                       #STRESS PERIOD 104
-1                                                       #STRESS PERIOD 105
-1                                                       #STRESS PERIOD 106
-1                                                       #STRESS PERIOD 107
-1                                                       #STRESS PERIOD 108
-1                                                       #STRESS PERIOD 109
-1                                                       #STRESS PERIOD 110
-1                                                       #STRESS PERIOD 111
-1                                                       #STRESS PERIOD 112
-1                                                       #STRESS PERIOD 113
-1                                                       #STRESS PERIOD 114
-1                                                       #STRESS PERIOD 115
-1                                                       #STRESS PERIOD 116
-1                                                       #STRESS PERIOD 117
-1                                                       #STRESS PERIOD 118
-1                                                       #STRESS PERIOD 119
-1                                                       #STRESS PERIOD 120
-1                                                       #STRESS PERIOD 121
-1                                                       #STRESS PERIOD 122
-1                                                       #STRESS PERIOD 123
-1                                                       #STRESS PERIOD 124
-1                                                       #STRESS PERIOD 125
-1                                                       #STRESS PERIOD 126
-1                                                       #STRESS PERIOD 127
-1                                                       #STRESS PERIOD 128
-1                                                       #STRESS PERIOD 129
-1                                                       #STRESS PERIOD 130
-1                                                       #STRESS PERIOD 131
-1                                                       #STRESS PERIOD 132
-1                                                       #STRESS PERIOD 133
-1                                                       #STRESS PERIOD 134
-1                                                       #STRESS PERIOD 135
-1                                                       #STRESS PERIOD 136
-1                                                       #STRESS PERIOD 137
-1                                                       #STRESS PERIOD 138
-1                                                       #STRESS PERIOD 139
-1                                                       #STRESS PERIOD 140
-1                                                       #STRESS PERIOD 141
-1                                                       #STRESS PERIOD 142
-1                                                       #STRESS PERIOD 143
-1                                                       #STRESS PERIOD 144
-1                                                       #STRESS PERIOD 145
-1                                                       #STRESS PERIOD 146
-1                                                       #STRESS PERIOD 147
-1                                                       #STRESS PERIOD 148
-1                                                       #STRESS PERIOD 149
-1                                                       #STRESS PERIOD 150
-1                                                       #STRESS PERIOD 151
-1                                                       #STRESS PERIOD 152
-1                                                       #STRESS PERIOD 153
-1                                                       #STRESS PERIOD 154
-1                                                       #STRESS PERIOD 155
-1                                                       #STRESS PERIOD 156
-1                                                       #STRESS PERIOD 157
-1                                                       #STRESS PERIOD 158
-1                                                       #STRESS PERIOD 159
-1                                                       #STRESS PERIOD 160
-1                                                       #STRESS PERIOD 161
-1                                                       #STRESS PERIOD 162
-1                                                       #STRESS PERIOD 163
-1                                                       #STRESS PERIOD 164
-1                                                       #STRESS PERIOD 165
-1                                                       #STRESS PERIOD 166
-1                                                       #STRESS PERIOD 167
-1                                                       #STRESS PERIOD 168
-1                                                       #STRESS PERIOD 169
-1                                                       #STRESS PERIOD 170
-1                                                       #STRESS PERIOD 171
-1                                                       #STRESS PERIOD 172
-1                                                       #STRESS PERIOD 173
-1                                                       #STRESS PERIOD 174
-1                                                       #STRESS PERIOD 175
-1                                                       #STRESS PERIOD 176
-1                                                       #STRESS PERIOD 177
-1                                                       #STRESS PERIOD 178
-1                                                       #STRESS PERIOD 179
-1                                                       #STRESS PERIOD 180
-1                                                       #STRESS PERIOD 181
-1                                                       #STRESS PERIOD 182
-1                                                       #STRESS PERIOD 183
-1                                                       #STRESS PERIOD 184
-1                                                       #STRESS PERIOD 185
-1                                                       #STRESS PERIOD 186
-1                                                       #STRESS PERIOD 187
-1                                                       #STRESS PERIOD 188
-1                                                       #STRESS PERIOD 189
-1                                                       #STRESS PERIOD 190
-1                                                       #STRESS PERIOD 191
-1                                                       #STRESS PERIOD 192
-1                                                       #STRESS PERIOD 193
-1                                                       #STRESS PERIOD 194
-1                                                       #STRESS PERIOD 195
-1                                                       #STRESS PERIOD 196
-1                                                       #STRESS PERIOD 197
-1                                                       #STRESS PERIOD 198
-1                                                       #STRESS PERIOD 199
-1                                                       #STRESS PERIOD 200
-1                                                       #STRESS PERIOD 201
-1                                                       #STRESS PERIOD 202
-1                                                       #STRESS PERIOD 203
-1                                                       #STRESS PERIOD 204
-1                                                       #STRESS PERIOD 205
-1                                                       #STRESS PERIOD 206
-1                                                       #STRESS PERIOD 207
-1                                                       #STRESS PERIOD 208
-1                                                       #STRESS PERIOD 209
-1                                                       #STRESS PERIOD 210
-1                                                       #STRESS PERIOD 211
-1                                                       #STRESS PERIOD 212
-1                                                       #STRESS PERIOD 213
-1                                                       #STRESS PERIOD 214
-1                                                       #STRESS PERIOD 215
-1                                                       #STRESS PERIOD 216
-1                                                       #STRESS PERIOD 217
-1                                                       #STRESS PERIOD 218
-1                                                       #STRESS PERIOD 219
-1                                                       #STRESS PERIOD 220
-1                                                       #STRESS PERIOD 221
-1                                                       #STRESS PERIOD 222
-1                                                       #STRESS PERIOD 223
-1                                                       #STRESS PERIOD 224
-1                                                       #STRESS PERIOD 225
-1                                                       #STRESS PERIOD 226
-1                                                       #STRESS PERIOD 227
-1                                                       #STRESS PERIOD 228
-1                                                       #STRESS PERIOD 229
-1                                                       #STRESS PERIOD 230
-1                                                       #STRESS PERIOD 231
-1                                                       #STRESS PERIOD 232
-1                                                       #STRESS PERIOD 233
-1                                                       #STRESS PERIOD 234
-1                                                       #STRESS PERIOD 235
-1                                                       #STRESS PERIOD 236
-1                                                       #STRESS PERIOD 237
-1                                                       #STRESS PERIOD 238
-1                                                       #STRESS PERIOD 239
-1                                                       #STRESS PERIOD 240
-1                                                       #STRESS PERIOD 241
-1                                                       #STRESS PERIOD 242
-1                                                       #STRESS PERIOD 243
-1                                                       #STRESS PERIOD 244
-1                                                       #STRESS PERIOD 245
-1                                                       #STRESS PERIOD 246
-1                                                       #STRESS PERIOD 247
-1                                                       #STRESS PERIOD 248
-1                                                       #STRESS PERIOD 249
-1                                                       #STRESS PERIOD 250
-1                                                       #STRESS PERIOD 251
-1                                                       #STRESS PERIOD 252
-1                                                       #STRESS PERIOD 253
-1                                                       #STRESS PERIOD 254
-1                                                       #STRESS PERIOD 255
-1                                                       #STRESS PERIOD 256
-1                                                       #STRESS PERIOD 257
-1                                                       #STRESS PERIOD 258
-1                                                       #STRESS PERIOD 259
-1                                                       #STRESS PERIOD 260
-1                                                       #STRESS PERIOD 261
-1                                                       #STRESS PERIOD 262
-1                                                       #STRESS PERIOD 263
-1                                                       #STRESS PERIOD 264
-1                                                       #STRESS PERIOD 265
-1                                                       #STRESS PERIOD 266
-1                                                       #STRESS PERIOD 267
-1                                                       #STRESS PERIOD 268
-1                                                       #STRESS PERIOD 269
-1                                                       #STRESS PERIOD 270
-1                                                       #STRESS PERIOD 271
-1                                                       #STRESS PERIOD 272
-1                                                       #STRESS PERIOD 273
-1                                                       #STRESS PERIOD 274
-1                                                       #STRESS PERIOD 275
-1                                                       #STRESS PERIOD 276
-1                                                       #STRESS PERIOD 277
-1                                                       #STRESS PERIOD 278
-1                                                       #STRESS PERIOD 279
-1                                                       #STRESS PERIOD 280
-1                                                       #STRESS PERIOD 281
-1                                                       #STRESS PERIOD 282
-1                                                       #STRESS PERIOD 283
-1                                                       #STRESS PERIOD 284
-1                                                       #STRESS PERIOD 285
-1                                                       #STRESS PERIOD 286
-1                                                       #STRESS PERIOD 287
-1                                                       #STRESS PERIOD 288
-1                                                       #STRESS PERIOD 289
-1                                                       #STRESS PERIOD 290
-1                                                       #STRESS PERIOD 291
-1                                                       #STRESS PERIOD 292
-1                                                       #STRESS PERIOD 293
-1                                                       #STRESS PERIOD 294
-1                                                       #STRESS PERIOD 295
-1                                                       #STRESS PERIOD 296
-1                                                       #STRESS PERIOD 297
-1                                                       #STRESS PERIOD 298
-1                                                       #STRESS PERIOD 299
-1                                                       #STRESS PERIOD 300
-1                                                       #STRESS PERIOD 301
-1                                                       #STRESS PERIOD 302
-1                                                       #STRESS PERIOD 303
-1                                                       #STRESS PERIOD 304
-1                                                       #STRESS PERIOD 305
-1                                                       #STRESS PERIOD 306
-1                                                       #STRESS PERIOD 307
-1                                                       #STRESS PERIOD 308
-1                                                       #STRESS PERIOD 309
-1                                                       #STRESS PERIOD 310
-1                                                       #STRESS PERIOD 311
-1                                                       #STRESS PERIOD 312
-1                                                       #STRESS PERIOD 313
-1                                                       #STRESS PERIOD 314
-1                                                       #STRESS PERIOD 315
-1                                                       #STRESS PERIOD 316
-1                                                       #STRESS PERIOD 317
-1                                                       #STRESS PERIOD 318
-1                                                       #STRESS PERIOD 319
-1                                                       #STRESS PERIOD 320
-1                                                       #STRESS PERIOD 321
-1                                                       #STRESS PERIOD 322
-1                                                       #STRESS PERIOD 323
-1                                                       #STRESS PERIOD 324
-1                                                       #STRESS PERIOD 325
-1                                                       #STRESS PERIOD 326
-1                                                       #STRESS PERIOD 327
-1                                                       #STRESS PERIOD 328
-1                                                       #STRESS PERIOD 329
-1                                                       #STRESS PERIOD 330
-1                                                       #STRESS PERIOD 331
-1                                                       #STRESS PERIOD 332
-1                                                       #STRESS PERIOD 333
-1                                                       #STRESS PERIOD 334
-1                                                       #STRESS PERIOD 335
-1                                                       #STRESS PERIOD 336
-1                                                       #STRESS PERIOD 337
-1                                                       #STRESS PERIOD 338
-1                                                       #STRESS PERIOD 339
-1                                                       #STRESS PERIOD 340
-1                                                       #STRESS PERIOD 341
-1                                                       #STRESS PERIOD 342
-1                                                       #STRESS PERIOD 343
-1                                                       #STRESS PERIOD 344
-1                                                       #STRESS PERIOD 345
-1                                                       #STRESS PERIOD 346
-1                                                       #STRESS PERIOD 347
-1                                                       #STRESS PERIOD 348
-1                                                       #STRESS PERIOD 349
-1                                                       #STRESS PERIOD 350
-1                                                       #STRESS PERIOD 351
-1                                                       #STRESS PERIOD 352
-1                                                       #STRESS PERIOD 353
-1                                                       #STRESS PERIOD 354
-1                                                       #STRESS PERIOD 355
-1                                                       #STRESS PERIOD 356
-1                                                       #STRESS PERIOD 357
-1                                                       #STRESS PERIOD 358
-1                                                       #STRESS PERIOD 359
-1                                                       #STRESS PERIOD 360
-1                                                       #STRESS PERIOD 361
-1                                                       #STRESS PERIOD 362
-1                                                       #STRESS PERIOD 363
-1                                                       #STRESS PERIOD 364
-1                                                       #STRESS PERIOD 365
-1                                                       #STRESS PERIOD 366
-1                                                       #STRESS PERIOD 367
