                                  MODFLOW-NWT-SWR1 
      U.S. GEOLOGICAL SURVEY MODULAR FINITE-DIFFERENCE GROUNDWATER-FLOW MODEL
                            VERSION 1.0.9 07/01/2014
                    BASED ON MODFLOW-2005 VERSION 1.11.00 08/30/2013

 LIST FILE: swr007.lst
                         UNIT   16

 OPENING swr007.ba6
 FILE TYPE:BAS6   UNIT   15   STATUS:OLD    
 FORMAT:FORMATTED              ACCESS:SEQUENTIAL          

 OPENING swr007.lpf
 FILE TYPE:LPF   UNIT   17   STATUS:OLD    
 FORMAT:FORMATTED              ACCESS:SEQUENTIAL          

 OPENING swr007.wel
 FILE TYPE:WEL   UNIT   12   STATUS:OLD    
 FORMAT:FORMATTED              ACCESS:SEQUENTIAL          

 OPENING swr007.pcg
 FILE TYPE:PCG   UNIT   13   STATUS:OLD    
 FORMAT:FORMATTED              ACCESS:SEQUENTIAL          

 OPENING swr007.oc
 FILE TYPE:OC   UNIT   14   STATUS:OLD    
 FORMAT:FORMATTED              ACCESS:SEQUENTIAL          

 OPENING swr007.swr
 FILE TYPE:SWR   UNIT   11   STATUS:OLD    
 FORMAT:FORMATTED              ACCESS:SEQUENTIAL          

 OPENING swr007.dis
 FILE TYPE:DIS   UNIT   10   STATUS:OLD    
 FORMAT:FORMATTED              ACCESS:SEQUENTIAL          

 OPENING swr007.zon
 FILE TYPE:ZONE   UNIT   18   STATUS:OLD    
 FORMAT:FORMATTED              ACCESS:SEQUENTIAL          

 OPENING swr007.hds
 FILE TYPE:DATA(BINARY)   UNIT   76   STATUS:REPLACE
 FORMAT:BINARY                 ACCESS:SEQUENTIAL          

 OPENING swr007.cbc
 FILE TYPE:DATA(BINARY)   UNIT   77   STATUS:REPLACE
 FORMAT:BINARY                 ACCESS:SEQUENTIAL          

 OPENING swr007.flow
 FILE TYPE:DATA(BINARY)   UNIT  101   STATUS:REPLACE
 FORMAT:BINARY                 ACCESS:SEQUENTIAL          

 OPENING swr007.stg
 FILE TYPE:DATA(BINARY)   UNIT  102   STATUS:REPLACE
 FORMAT:BINARY                 ACCESS:SEQUENTIAL          

 OPENING swr007.qaq
 FILE TYPE:DATA(BINARY)   UNIT  103   STATUS:UNKNOWN
 FORMAT:BINARY                 ACCESS:SEQUENTIAL          

 BAS -- BASIC PACKAGE, VERSION 7, 5/2/2005 INPUT READ FROM UNIT   15
 
 MODFLOW was compiled using mixed precision
 Precision of REAL variables:           6
 Precision of DOUBLE PRECISION variables:          15

 DISCRETIZATION INPUT DATA READ FROM UNIT   10
    1 LAYERS        50 ROWS       108 COLUMNS
    1 STRESS PERIOD(S) IN SIMULATION
 MODEL TIME UNIT IS SECONDS
 MODEL LENGTH UNIT IS UNDEFINED
  Confining bed flag for each layer:
   0

                     DELR =   92.5000    

                     DELC =   90.0000    

 TOP ELEVATION OF LAYER 1 =  1.000000    

   MODEL LAYER BOTTOM EL. =   0.00000     FOR LAYER   1


 STRESS PERIOD     LENGTH       TIME STEPS     MULTIPLIER FOR DELT    SS FLAG
 ----------------------------------------------------------------------------
        1         5.000000          1                    1.000         SS

 STEADY-STATE SIMULATION



 
 #Locally Refined Grid:  Simple Heterogeneity                                    
 #Steffen Mehl 02/23/2004-> HETEROGENEOUS and PUMPING WELL                       
 THE FREE FORMAT OPTION HAS BEEN SELECTED
 CALCULATE FLOW BETWEEN ADJACENT CONSTANT-HEAD CELLS

 OPENING FILE ON UNIT   99:
 swr007.ibd                                                                                                                                                                                              



                     BOUNDARY ARRAY FOR LAYER   1
 READING ON UNIT   99 WITH FORMAT: (108I3)             

           1      2      3      4      5      6      7      8      9     10
          11     12     13     14     15     16     17     18     19     20
          21     22     23     24     25     26     27     28     29     30
          31     32     33     34     35     36     37     38     39     40
          41     42     43     44     45     46     47     48     49     50
          51     52     53     54     55     56     57     58     59     60
          61     62     63     64     65     66     67     68     69     70
          71     72     73     74     75     76     77     78     79     80
          81     82     83     84     85     86     87     88     89     90
          91     92     93     94     95     96     97     98     99    100
         101    102    103    104    105    106    107    108
 ..........................................................................
   1      -1      1      1      1      1      1      1      1      1      1
           1      1      1      1      1      1      1      1      1      1
           1      1      1      1      1      1      1      1      1      1
           1      1      1      1      1      1      1      1      1      1
           1      1      1      1      1      1      1      1      1      1
           1      1      1      1      1      1      1      1      1      1
           1      1      1      1      1      1      1      1      1      1
           1      1      1      1      1      1      1      1      1      1
           1      1      1      1      1      1      1      1      1      1
           1      1      1      1      1      1      1      1      1      1
           1      1      1      1      1      1      1     -1
   2      -1      1      1      1      1      1      1      1      1      1
           1      1      1      1      1      1      1      1      1      1
           1      1      1      1      1      1      1      1      1      1
           1      1      1      1      1      1      1      1      1      1
           1      1      1      1      1      1      1      1      1      1
           1      1      1      1      1      1      1      1      1      1
           1      1      1      1      1      1      1      1      1      1
           1      1      1      1      1      1      1      1      1      1
           1      1      1      1      1      1      1      1      1      1
           1      1      1      1      1      1      1      1      1      1
           1      1      1      1      1      1      1     -1
   3      -1      1      1      1      1      1      1      1      1      1
           1      1      1      1      1      1      1      1      1      1
           1      1      1      1      1      1      1      1      1      1
           1      1      1      1      1      1      1      1      1      1
           1      1      1      1      1      1      1      1      1      1
           1      1      1      1      1      1      1      1      1      1
           1      1      1      1      1      1      1      1      1      1
           1      1      1      1      1      1      1      1      1      1
           1      1      1      1      1      1      1      1      1      1
           1      1      1      1      1      1      1      1      1      1
           1      1      1      1      1      1      1     -1
   4      -1      1      1      1      1      1      1      1      1      1
           1      1      1      1      1      1      1      1      1      1
           1      1      1      1      1      1      1      1      1      1
           1      1      1      1      1      1      1      1      1      1
           1      1      1      1      1      1      1      1      1      1
           1      1      1      1      1      1      1      1      1      1
           1      1      1      1      1      1      1      1      1      1
           1      1      1      1      1      1      1      1      1      1
           1      1      1      1      1      1      1      1      1      1
           1      1      1      1      1      1      1      1      1      1
           1      1      1      1      1      1      1     -1
   5      -1      1      1      1      1      1      1      1      1      1
           1      1      1      1      1      1      1      1      1      1
           1      1      1      1      1      1      1      1      1      1
           1      1      1      1      1      1      1      1      1      1
           1      1      1      1      1      1      1      1      1      1
           1      1      1      1      1      1      1      1      1      1
           1      1      1      1      1      1      1      1      1      1
           1      1      1      1      1      1      1      1      1      1
           1      1      1      1      1      1      1      1      1      1
           1      1      1      1      1      1      1      1      1      1
           1      1      1      1      1      1      1     -1
   6      -1      1      1      1      1      1      1      1      1      1
           1      1      1      1      1      1      1      1      1      1
           1      1      1      1      1      1      1      1      1      1
           1      1      1      1      1      1      1      1      1      1
           1      1      1      1      1      1      1      1      1      1
           1      1      1      1      1      1      1      1      1      1
           1      1      1      1      1      1      1      1      1      1
           1      1      1      1      1      1      1      1      1      1
           1      1      1      1      1      1      1      1      1      1
           1      1      1      1      1      1      1      1      1      1
           1      1      1      1      1      1      1     -1
   7      -1      1      1      1      1      1      1      1      1      1
           1      1      1      1      1      1      1      1      1      1
           1      1      1      1      1      1      1      1      1      1
           1      1      1      1      1      1      1      1      1      1
           1      1      1      1      1      1      1      1      1      1
           1      1      1      1      1      1      1      1      1      1
           1      1      1      1      1      1      1      1      1      1
           1      1      1      1      1      1      1      1      1      1
           1      1      1      1      1      1      1      1      1      1
           1      1      1      1      1      1      1      1      1      1
           1      1      1      1      1      1      1     -1
   8      -1      1      1      1      1      1      1      1      1      1
           1      1      1      1      1      1      1      1      1      1
           1      1      1      1      1      1      1      1      1      1
           1      1      1      1      1      1      1      1      1      1
           1      1      1      1      1      1      1      1      1      1
           1      1      1      1      1      1      1      1      1      1
           1      1      1      1      1      1      1      1      1      1
           1      1      1      1      1      1      1      1      1      1
           1      1      1      1      1      1      1      1      1      1
           1      1      1      1      1      1      1      1      1      1
           1      1      1      1      1      1      1     -1
   9      -1      1      1      1      1      1      1      1      1      1
           1      1      1      1      1      1      1      1      1      1
           1      1      1      1      1      1      1      1      1      1
           1      1      1      1      1      1      1      1      1      1
           1      1      1      1      1      1      1      1      1      1
           1      1      1      1      1      1      1      1      1      1
           1      1      1      1      1      1      1      1      1      1
           1      1      1      1      1      1      1      1      1      1
           1      1      1      1      1      1      1      1      1      1
           1      1      1      1      1      1      1      1      1      1
           1      1      1      1      1      1      1     -1
  10      -1      1      1      1      1      1      1      1      1      1
           1      1      1      1      1      1      1      1      1      1
           1      1      1      1      1      1      1      1      1      1
           1      1      1      1      1      1      1      1      1      1
           1      1      1      1      1      1      1      1      1      1
           1      1      1      1      1      1      1      1      1      1
           1      1      1      1      1      1      1      1      1      1
           1      1      1      1      1      1      1      1      1      1
           1      1      1      1      1      1      1      1      1      1
           1      1      1      1      1      1      1      1      1      1
           1      1      1      1      1      1      1     -1
  11      -1      1      1      1      1      1      1      1      1      1
           1      1      1      1      1      1      1      1      1      1
           1      1      1      1      1      1      1      1      1      1
           1      1      1      1      1      1      1      1      1      1
           1      1      1      1      1      1      1      1      1      1
           1      1      1      1      1      1      1      1      1      1
           1      1      1      1      1      1      1      1      1      1
           1      1      1      1      1      1      1      1      1      1
           1      1      1      1      1      1      1      1      1      1
           1      1      1      1      1      1      1      1      1      1
           1      1      1      1      1      1      1     -1
  12      -1      1      1      1      1      1      1      1      1      1
           1      1      1      1      1      1      1      1      1      1
           1      1      1      1      1      1      1      1      1      1
           1      1      1      1      1      1      1      1      1      1
           1      1      1      1      1      1      1      1      1      1
           1      1      1      1      1      1      1      1      1      1
           1      1      1      1      1      1      1      1      1      1
           1      1      1      1      1      1      1      1      1      1
           1      1      1      1      1      1      1      1      1      1
           1      1      1      1      1      1      1      1      1      1
           1      1      1      1      1      1      1     -1
  13      -1      1      1      1      1      1      1      1      1      1
           1      1      1      1      1      1      1      1      1      1
           1      1      1      1      1      1      1      1      1      1
           1      1      1      1      1      1      1      1      1      1
           1      1      1      1      1      1      1      1      1      1
           1      1      1      1      1      1      1      1      1      1
           1      1      1      1      1      1      1      1      1      1
           1      1      1      1      1      1      1      1      1      1
           1      1      1      1      1      1      1      1      1      1
           1      1      1      1      1      1      1      1      1      1
           1      1      1      1      1      1      1     -1
  14      -1      1      1      1      1      1      1      1      1      1
           1      1      1      1      1      1      1      1      1      1
           1      1      1      1      1      1      1      1      1      1
           1      1      1      1      1      1      1      1      1      1
           1      1      1      1      1      1      1      1      1      1
           1      1      1      1      1      1      1      1      1      1
           1      1      1      1      1      1      1      1      1      1
           1      1      1      1      1      1      1      1      1      1
           1      1      1      1      1      1      1      1      1      1
           1      1      1      1      1      1      1      1      1      1
           1      1      1      1      1      1      1     -1
  15      -1      1      1      1      1      1      1      1      1      1
           1      1      1      1      1      1      1      1      1      1
           1      1      1      1      1      1      1      1      1      1
           1      1      1      1      1      1      1      1      1      1
           1      1      1      1      1      1      1      1      1      1
           1      1      1      1      1      1      1      1      1      1
           1      1      1      1      1      1      1      1      1      1
           1      1      1      1      1      1      1      1      1      1
           1      1      1      1      1      1      1      1      1      1
           1      1      1      1      1      1      1      1      1      1
           1      1      1      1      1      1      1     -1
  16      -1      1      1      1      1      1      1      1      1      1
           1      1      1      1      1      1      1      1      1      1
           1      1      1      1      1      1      1      1      1      1
           1      1      1      1      1      1      1      1      1      1
           1      1      1      1      1      1      1      1      1      1
           1      1      1      1      1      1      1      1      1      1
           1      1      1      1      1      1      1      1      1      1
           1      1      1      1      1      1      1      1      1      1
           1      1      1      1      1      1      1      1      1      1
           1      1      1      1      1      1      1      1      1      1
           1      1      1      1      1      1      1     -1
  17      -1      1      1      1      1      1      1      1      1      1
           1      1      1      1      1      1      1      1      1      1
           1      1      1      1      1      1      1      1      1      1
           1      1      1      1      1      1      1      1      1      1
           1      1      1      1      1      1      1      1      1      1
           1      1      1      1      1      1      1      1      1      1
           1      1      1      1      1      1      1      1      1      1
           1      1      1      1      1      1      1      1      1      1
           1      1      1      1      1      1      1      1      1      1
           1      1      1      1      1      1      1      1      1      1
           1      1      1      1      1      1      1     -1
  18      -1      1      1      1      1      1      1      1      1      1
           1      1      1      1      1      1      1      1      1      1
           1      1      1      1      1      1      1      1      1      1
           1      1      1      1      1      1      1      1      1      1
           1      1      1      1      1      1      1      1      1      1
           1      1      1      1      1      1      1      1      1      1
           1      1      1      1      1      1      1      1      1      1
           1      1      1      1      1      1      1      1      1      1
           1      1      1      1      1      1      1      1      1      1
           1      1      1      1      1      1      1      1      1      1
           1      1      1      1      1      1      1     -1
  19      -1      1      1      1      1      1      1      1      1      1
           1      1      1      1      1      1      1      1      1      1
           1      1      1      1      1      1      1      1      1      1
           1      1      1      1      1      1      1      1      1      1
           1      1      1      1      1      1      1      1      1      1
           1      1      1      1      1      1      1      1      1      1
           1      1      1      1      1      1      1      1      1      1
           1      1      1      1      1      1      1      1      1      1
           1      1      1      1      1      1      1      1      1      1
           1      1      1      1      1      1      1      1      1      1
           1      1      1      1      1      1      1     -1
  20      -1      1      1      1      1      1      1      1      1      1
           1      1      1      1      1      1      1      1      1      1
           1      1      1      1      1      1      1      1      1      1
           1      1      1      1      1      1      1      1      1      1
           1      1      1      1      1      1      1      1      1      1
           1      1      1      1      1      1      1      1      1      1
           1      1      1      1      1      1      1      1      1      1
           1      1      1      1      1      1      1      1      1      1
           1      1      1      1      1      1      1      1      1      1
           1      1      1      1      1      1      1      1      1      1
           1      1      1      1      1      1      1     -1
  21      -1      1      1      1      1      1      1      1      1      1
           1      1      1      1      1      1      1      1      1      1
           1      1      1      1      1      1      1      1      1      1
           1      1      1      1      1      1      1      1      1      1
           1      1      1      1      1      1      1      1      1      1
           1      1      1      1      1      1      1      1      1      1
           1      1      1      1      1      1      1      1      1      1
           1      1      1      1      1      1      1      1      1      1
           1      1      1      1      1      1      1      1      1      1
           1      1      1      1      1      1      1      1      1      1
           1      1      1      1      1      1      1     -1
  22      -1      1      1      1      1      1      1      1      1      1
           1      1      1      1      1      1      1      1      1      1
           1      1      1      1      1      1      1      1      1      1
           1      1      1      1      1      1      1      1      1      1
           1      1      1      1      1      1      1      1      1      1
           1      1      1      1      1      1      1      1      1      1
           1      1      1      1      1      1      1      1      1      1
           1      1      1      1      1      1      1      1      1      1
           1      1      1      1      1      1      1      1      1      1
           1      1      1      1      1      1      1      1      1      1
           1      1      1      1      1      1      1     -1
  23      -1      1      1      1      1      1      1      1      1      1
           1      1      1      1      1      1      1      1      1      1
           1      1      1      1      1      1      1      1      1      1
           1      1      1      1      1      1      1      1      1      1
           1      1      1      1      1      1      1      1      1      1
           1      1      1      1      1      1      1      1      1      1
           1      1      1      1      1      1      1      1      1      1
           1      1      1      1      1      1      1      1      1      1
           1      1      1      1      1      1      1      1      1      1
           1      1      1      1      1      1      1      1      1      1
           1      1      1      1      1      1      1     -1
  24      -1      1      1      1      1      1      1      1      1      1
           1      1      1      1      1      1      1      1      1      1
           1      1      1      1      1      1      1      1      1      1
           1      1      1      1      1      1      1      1      1      1
           1      1      1      1      1      1      1      1      1      1
           1      1      1      1      1      1      1      1      1      1
           1      1      1      1      1      1      1      1      1      1
           1      1      1      1      1      1      1      1      1      1
           1      1      1      1      1      1      1      1      1      1
           1      1      1      1      1      1      1      1      1      1
           1      1      1      1      1      1      1     -1
  25      -1      1      1      1      1      1      1      1      1      1
           1      1      1      1      1      1      1      1      1      1
           1      1      1      1      1      1      1      1      1      1
           1      1      1      1      1      1      1      1      1      1
           1      1      1      1      1      1      1      1      1      1
           1      1      1      1      1      1      1      1      1      1
           1      1      1      1      1      1      1      1      1      1
           1      1      1      1      1      1      1      1      1      1
           1      1      1      1      1      1      1      1      1      1
           1      1      1      1      1      1      1      1      1      1
           1      1      1      1      1      1      1     -1
  26      -1      1      1      1      1      1      1      1      1      1
           1      1      1      1      1      1      1      1      1      1
           1      1      1      1      1      1      1      1      1      1
           1      1      1      1      1      1      1      1      1      1
           1      1      1      1      1      1      1      1      1      1
           1      1      1      1      1      1      1      1      1      1
           1      1      1      1      1      1      1      1      1      1
           1      1      1      1      1      1      1      1      1      1
           1      1      1      1      1      1      1      1      1      1
           1      1      1      1      1      1      1      1      1      1
           1      1      1      1      1      1      1     -1
  27      -1      1      1      1      1      1      1      1      1      1
           1      1      1      1      1      1      1      1      1      1
           1      1      1      1      1      1      1      1      1      1
           1      1      1      1      1      1      1      1      1      1
           1      1      1      1      1      1      1      1      1      1
           1      1      1      1      1      1      1      1      1      1
           1      1      1      1      1      1      1      1      1      1
           1      1      1      1      1      1      1      1      1      1
           1      1      1      1      1      1      1      1      1      1
           1      1      1      1      1      1      1      1      1      1
           1      1      1      1      1      1      1     -1
  28      -1      1      1      1      1      1      1      1      1      1
           1      1      1      1      1      1      1      1      1      1
           1      1      1      1      1      1      1      1      1      1
           1      1      1      1      1      1      1      1      1      1
           1      1      1      1      1      1      1      1      1      1
           1      1      1      1      1      1      1      1      1      1
           1      1      1      1      1      1      1      1      1      1
           1      1      1      1      1      1      1      1      1      1
           1      1      1      1      1      1      1      1      1      1
           1      1      1      1      1      1      1      1      1      1
           1      1      1      1      1      1      1     -1
  29      -1      1      1      1      1      1      1      1      1      1
           1      1      1      1      1      1      1      1      1      1
           1      1      1      1      1      1      1      1      1      1
           1      1      1      1      1      1      1      1      1      1
           1      1      1      1      1      1      1      1      1      1
           1      1      1      1      1      1      1      1      1      1
           1      1      1      1      1      1      1      1      1      1
           1      1      1      1      1      1      1      1      1      1
           1      1      1      1      1      1      1      1      1      1
           1      1      1      1      1      1      1      1      1      1
           1      1      1      1      1      1      1     -1
  30      -1      1      1      1      1      1      1      1      1      1
           1      1      1      1      1      1      1      1      1      1
           1      1      1      1      1      1      1      1      1      1
           1      1      1      1      1      1      1      1      1      1
           1      1      1      1      1      1      1      1      1      1
           1      1      1      1      1      1      1      1      1      1
           1      1      1      1      1      1      1      1      1      1
           1      1      1      1      1      1      1      1      1      1
           1      1      1      1      1      1      1      1      1      1
           1      1      1      1      1      1      1      1      1      1
           1      1      1      1      1      1      1     -1
  31      -1      1      1      1      1      1      1      1      1      1
           1      1      1      1      1      1      1      1      1      1
           1      1      1      1      1      1      1      1      1      1
           1      1      1      1      1      1      1      1      1      1
           1      1      1      1      1      1      1      1      1      1
           1      1      1      1      1      1      1      1      1      1