                                  MODFLOW-NWT-SWR1 
      U.S. GEOLOGICAL SURVEY MODULAR FINITE-DIFFERENCE GROUNDWATER-FLOW MODEL
                            VERSION 1.0.7 01/15/2013
                    BASED ON MODFLOW-2005 VERSION 1.9.01 05/01/2012

 LIST FILE: Results.AS\SWRSample06.lst
                         UNIT    7

 OPENING SWRSample06.bas
 FILE TYPE:BAS6   UNIT    1   STATUS:OLD    
 FORMAT:FORMATTED              ACCESS:SEQUENTIAL          

 OPENING SWRSample06.AS.dis
 FILE TYPE:DIS   UNIT   29   STATUS:OLD    
 FORMAT:FORMATTED              ACCESS:SEQUENTIAL          

 OPENING SWRSample06.lpf
 FILE TYPE:LPF   UNIT   11   STATUS:OLD    
 FORMAT:FORMATTED              ACCESS:SEQUENTIAL          

 OPENING SWRSample06.oc
 FILE TYPE:OC   UNIT   22   STATUS:OLD    
 FORMAT:FORMATTED              ACCESS:SEQUENTIAL          

 OPENING SWRSample06.pcg
 FILE TYPE:PCG   UNIT   19   STATUS:OLD    
 FORMAT:FORMATTED              ACCESS:SEQUENTIAL          

 OPENING SWRSample06.AS.swr
 FILE TYPE:SWR   UNIT   61   STATUS:OLD    
 FORMAT:FORMATTED              ACCESS:SEQUENTIAL          

 OPENING Results.AS\SWRSample06_Stage.stg
 FILE TYPE:DATA(BINARY)   UNIT  102   STATUS:UNKNOWN
 FORMAT:BINARY                 ACCESS:SEQUENTIAL          

 BAS -- BASIC PACKAGE, VERSION 7, 5/2/2005 INPUT READ FROM UNIT    1
 
 MODFLOW was compiled using mixed precision
 Precision of REAL variables:           6
 Precision of DOUBLE PRECISION variables:          15

 DISCRETIZATION INPUT DATA READ FROM UNIT   29
 # MODFLOW2000 Discretization File
    1 LAYERS        76 ROWS         1 COLUMNS
    1 STRESS PERIOD(S) IN SIMULATION
 MODEL TIME UNIT IS SECONDS
 MODEL LENGTH UNIT IS METERS
  Confining bed flag for each layer:
   0

                     DELR =   1072.90    

                     DELC =   1072.90    

 TOP ELEVATION OF LAYER 1 =   0.00000    

   MODEL LAYER BOTTOM EL. =  -5.00000     FOR LAYER   1


 STRESS PERIOD     LENGTH       TIME STEPS     MULTIPLIER FOR DELT    SS FLAG
 ----------------------------------------------------------------------------
        1         1036800.        288                    1.000         TR

 TRANSIENT SIMULATION



 
 # MODFLOW2005 Basic Package                                                     
 #MODFLOW Data Set Created by Groundwater Vistas                                 
 #

           BOUNDARY ARRAY =              1 FOR LAYER   1

 AQUIFER HEAD WILL BE SET TO   999.00     AT ALL NO-FLOW NODES (IBOUND=0).

             INITIAL HEAD =   4.50000     FOR LAYER   1

 OUTPUT CONTROL IS SPECIFIED ONLY AT TIME STEPS FOR WHICH OUTPUT IS DESIRED
 HEAD PRINT FORMAT CODE IS   0    DRAWDOWN PRINT FORMAT CODE IS   0
 HEADS WILL BE SAVED ON UNIT    0    DRAWDOWNS WILL BE SAVED ON UNIT    0

 LPF -- LAYER-PROPERTY FLOW PACKAGE, VERSION 7, 5/2/2005
         INPUT READ FROM UNIT   11
 # MODFLOW2000 Layer Property Flow (LPF) Package
 HEAD AT CELLS THAT CONVERT TO DRY= -1.00000E+30
 No named parameters

   LAYER FLAGS:
 LAYER       LAYTYP        LAYAVG         CHANI        LAYVKA        LAYWET
 ---------------------------------------------------------------------------
    1             1             0     1.000E+00             0             0

   INTERPRETATION OF LAYER FLAGS:
                        INTERBLOCK     HORIZONTAL    DATA IN
         LAYER TYPE   TRANSMISSIVITY   ANISOTROPY   ARRAY VKA   WETTABILITY
 LAYER      (LAYTYP)      (LAYAVG)       (CHANI)      (LAYVKA)      (LAYWET)
 ---------------------------------------------------------------------------
    1   CONVERTIBLE      HARMONIC     1.000E+00    VERTICAL K  NON-WETTABLE

 WETTING CAPABILITY IS NOT ACTIVE IN ANY LAYER

    HYD. COND. ALONG ROWS =   5.00000     FOR LAYER   1

      VERTICAL HYD. COND. =   5.00000     FOR LAYER   1

         SPECIFIC STORAGE =  1.000000     FOR LAYER   1

           SPECIFIC YIELD =  0.200000     FOR LAYER   1

 PCG -- CONJUGATE-GRADIENT SOLUTION PACKAGE, VERSION 7, 5/2/2005
 MAXIMUM OF    100 CALLS OF SOLUTION ROUTINE
 MAXIMUM OF     25 INTERNAL ITERATIONS PER CALL TO SOLUTION ROUTINE
 MATRIX PRECONDITIONING TYPE :    1
 IHCOFADD option -- When an active cell is surrounded by dry cells, convert
 the cell to dry only if storage and head-dependent boundary flow are 0.



                                    SOLUTION BY THE CONJUGATE-GRADIENT METHOD
                                   -------------------------------------------
                    MAXIMUM NUMBER OF CALLS TO PCG ROUTINE =      100
                        MAXIMUM ITERATIONS PER CALL TO PCG =       25
                               MATRIX PRECONDITIONING TYPE =        1
        RELAXATION FACTOR (ONLY USED WITH PRECOND. TYPE 1) =    0.10000E+01
 PARAMETER OF POLYNOMIAL PRECOND. = 2 (2) OR IS CALCULATED :        2
                         HEAD CHANGE CRITERION FOR CLOSURE =    0.10000E-02
                     RESIDUAL CHANGE CRITERION FOR CLOSURE =    0.10000E+01
            PCG HEAD AND RESIDUAL CHANGE PRINTOUT INTERVAL =        5
     PRINTING FROM SOLVER IS LIMITED(1) OR SUPPRESSED (>1) =        0
                            STEADY-STATE DAMPING PARAMETER =    0.10000E+01
                               TRANSIENT DAMPING PARAMETER =    0.10000E+01

 SWR -- SURFACE-WATER ROUTING PACKAGE,
 $Id: gwf2swr7.f 1.03 2013-08-30 15:00:00Z jdhughes $            
 INPUT READ FROM UNIT   61

 ...READING SWR1 PROCESS DATASET 1A
 SWR1 OPTIONS SPECIFIED IN DATASET 1B

 ...READING SWR1 PROCESS DATASET 1B
 UNRECOGNIZED SWR1 OPTION: USE_RCM_REORDERING


 SUMMARY OF SWR1 OPTIONS USED IN SIMULATION
 OPTION OPTION KEYWORD                       FILE UNIT
 ------ ----------------------------------- ----------
      1 PRINT_SWR_TO_SCREEN                       NONE
      8 USE_NONCONVERGENCE_CONTINUE               NONE
     10 USE_INEXACT_NEWTON                        NONE
     14 USE_DIAGONAL_SCALING                      NONE
 -----------------------------------------------------

 ...READING SWR1 PROCESS DATASET 2

 ...READING SWR1 PROCESS DATASET 3

 NUMBER OF REACHES                         =   76
 SURFACE WATER ONLY SIMULATION (>0=TRUE)   =    1
 LENGTH CONVERSION FACTOR                  =  1.0000000    
 TIME CONVERSION FACTOR                    =  1.0000000    
 MINIMUM GRADIENT FOR FLOW                 =  0.1000000E-11
 MAXIMUM DEPTH FOR SCALING REACH OUTFLOW   =  0.1000000E-01
 MINIMUM DEPTH FOR REACH OUTFLOW           =  0.1000000E-02
 DIFFUSIVE-WAVE APPROX. SPATIAL WEIGHTING  = CENTRAL             
 DEPTH SCALING                             = SIGMOID             
 TWO-DIMENSIONAL COORD.-INVARIANT APPROACH = EXPLICIT            
 MINIMUM ROUTING TIME STEP LENGTH          =   3600.000    
 MAXIMUM ROUTING TIME STEP LENGTH          =   3600.000    
 INITIAL ROUTING TIME STEP LENGTH          =   3600.000    
 OUTPUT PRINT INCREMENT                    =   7200.000    
 ADAPTIVE TIME STEP INCREMENT (RTMULT)     =  1.0000000    
 ADAPTIVE TIME STEP INCREMENT FREQUENCY    =    1
 MAXIMUM RAINFALL      PER ROUTING STEP    =   0.000000    
 MAXIMUM STAGE  CHANGE PER ROUTING STEP    =   0.000000    
 MAXIMUM INFLOW CHANGE PER ROUTING STEP    =   0.000000    

 CBC OUTPUT UNIT (ISWRCBC)                 =    0
 GROUP FLOW TERMS OUTPUT UNIT (ISWRPRGF)   =    0
 REACH STAGE OUTPUT UNIT (ISWRPSTG)        = -102
 REACH AQ-RCH FLOW OUTPUT UNIT (ISWRPQAQ)  =    0
 REACH LATERAL FLOW OUTPUT UNIT (ISWRPQM)  =    0
 STRUCTURE FLOW OUTPUT UNIT (ISWRPSTR)     =    0
 SUMMARY VELOCITY AND FROUDE INFORMATION   =    T


               --- SWR SOLVER PARAMETERS ---
 SOLVER = BICONJUGATE GRADIENT STABILIZED         
 PRECONDITIONER                            = INCOMPLETE LU THRES.
 JACOBIAN SCALING                          = SYMMETRIC SCALING   
 MAXIMUM NUMBER OF OUTER ITERATIONS        =   30
 MAXIMUM NUMBER OF INNER ITERATIONS        =  101
 NON-CONVERGENCE CONT.OF SWR AND MODFLOW   =    T
 NUMBER OF LEVELS FOR ILUT (NLEVELS)       =    7
 DROP TOLERANCE FOR ILUT (DROPTOL)         =  0.1000000E-02
 MAXIMUM STAGE    TOLERANCE (TOLS)         =  0.1000000E-08
 MAXIMUM ROOT     TOLERANCE (TOLR)         =  0.1000000E+00
 INEXACT NEWTON APPROACH (INEXCTNWT)       =    T
 MAXIMUM AQ-RCH FLOW TOLERANCE (TOLA)      =  0.0000000E+00
 STEADY-STATE DAMPENING PARAMETER (DAMPSS) =  0.1000000E+01
 TRANSIENT DAMPENING PARAMETER (DAMPTR)    =  0.1000000E+01
 PSEUDO-TRANSIENT CONTINUATION APPROACH    =    F
 SOLVER OUTPUT FREQUENCY (IPRSWR)          =  999
 CONVERGENCE PRINTING FLAG (MUTSWR)        =    3
   0 - MAXIMUM RESIDUAL EACH SWR TIMESTEP
   1 - TOTAL NUMBER OF ITERATIONS EACH SWR TIMESTEP
   2 - NO PRINTING
   3 - PRINTING IF CONVERGENCE FAILS
 BACKTRACKING ALLOWED                      =    F


 SURFACE WATER ONLY SIMULATION
 SETTING MODFLOW IBOUND TO ZERO FOR ALL CELLS

 ...READING SWR1 PROCESS DATASET 4A

 ...READING SWR1 PROCESS DATASET 4B

 -----------------------------------------------------------
 FULL REACH CONNECTIVITY FOR EACH REACH

 -----------------------------------------------------------
 REACH  =     1
               -----------------CONNECTIONS-----------------
                            1
 -----------------------------------------------------------
 REACHES           1 TO     2
 -----------------------------------------------------------

 -----------------------------------------------------------
 REACH  =     2
               -----------------CONNECTIONS-----------------
                            1              2
 -----------------------------------------------------------
 REACHES           2 TO     1     2 TO     3
 -----------------------------------------------------------

 -----------------------------------------------------------
 REACH  =     3
               -----------------CONNECTIONS-----------------
                            1              2
 -----------------------------------------------------------
 REACHES           3 TO     2     3 TO     4
 -----------------------------------------------------------

 -----------------------------------------------------------
 REACH  =     4
               -----------------CONNECTIONS-----------------
                            1              2
 -----------------------------------------------------------
 REACHES           4 TO     3     4 TO     5
 -----------------------------------------------------------

 -----------------------------------------------------------
 REACH  =     5
               -----------------CONNECTIONS-----------------
                            1              2
 -----------------------------------------------------------
 REACHES           5 TO     4     5 TO     6
 -----------------------------------------------------------

 -----------------------------------------------------------
 REACH  =     6
               -----------------CONNECTIONS-----------------
                            1              2
 -----------------------------------------------------------
 REACHES           6 TO     5     6 TO     7
 -----------------------------------------------------------

 -----------------------------------------------------------
 REACH  =     7
               -----------------CONNECTIONS-----------------
                            1              2
 -----------------------------------------------------------
 REACHES           7 TO     6     7 TO     8
 -----------------------------------------------------------

 -----------------------------------------------------------
 REACH  =     8
               -----------------CONNECTIONS-----------------
                            1              2
 -----------------------------------------------------------
 REACHES           8 TO     7     8 TO     9
 -----------------------------------------------------------

 -----------------------------------------------------------
 REACH  =     9
               -----------------CONNECTIONS-----------------
                            1              2
 -----------------------------------------------------------
 REACHES           9 TO     8     9 TO    10
 -----------------------------------------------------------

 -----------------------------------------------------------
 REACH  =    10
               -----------------CONNECTIONS-----------------
                            1              2
 -----------------------------------------------------------
 REACHES          10 TO     9    10 TO    11
 -----------------------------------------------------------

 -----------------------------------------------------------
 REACH  =    11
               -----------------CONNECTIONS-----------------
                            1              2
 -----------------------------------------------------------
 REACHES          11 TO    10    11 TO    12
 -----------------------------------------------------------

 -----------------------------------------------------------
 REACH  =    12
               -----------------CONNECTIONS-----------------
                            1              2
 -----------------------------------------------------------
 REACHES          12 TO    11    12 TO    13
 -----------------------------------------------------------

 -----------------------------------------------------------
 REACH  =    13
               -----------------CONNECTIONS-----------------
                            1              2
 -----------------------------------------------------------
 REACHES          13 TO    12    13 TO    14
 -----------------------------------------------------------

 -----------------------------------------------------------
 REACH  =    14
               -----------------CONNECTIONS-----------------
                            1              2
 -----------------------------------------------------------
 REACHES          14 TO    13    14 TO    15
 -----------------------------------------------------------

 -----------------------------------------------------------
 REACH  =    15
               -----------------CONNECTIONS-----------------
                            1              2
 -----------------------------------------------------------
 REACHES          15 TO    14    15 TO    16
 -----------------------------------------------------------

 -----------------------------------------------------------
 REACH  =    16
               -----------------CONNECTIONS-----------------
                            1              2
 -----------------------------------------------------------
 REACHES          16 TO    15    16 TO    17
 -----------------------------------------------------------

 -----------------------------------------------------------
 REACH  =    17
               -----------------CONNECTIONS-----------------
                            1              2
 -----------------------------------------------------------
 REACHES          17 TO    16    17 TO    18
 -----------------------------------------------------------

 -----------------------------------------------------------
 REACH  =    18
               -----------------CONNECTIONS-----------------
                            1              2
 -----------------------------------------------------------
 REACHES          18 TO    17    18 TO    19
 -----------------------------------------------------------

 -----------------------------------------------------------
 REACH  =    19
               -----------------CONNECTIONS-----------------
                            1              2
 -----------------------------------------------------------
 REACHES          19 TO    18    19 TO    20
 -----------------------------------------------------------

 -----------------------------------------------------------
 REACH  =    20
               -----------------CONNECTIONS-----------------
                            1              2
 -----------------------------------------------------------
 REACHES          20 TO    19    20 TO    21
 -----------------------------------------------------------

 -----------------------------------------------------------
 REACH  =    21
               -----------------CONNECTIONS-----------------
                            1              2
 -----------------------------------------------------------
 REACHES          21 TO    20    21 TO    22
 -----------------------------------------------------------

 -----------------------------------------------------------
 REACH  =    22
               -----------------CONNECTIONS-----------------
                            1              2
 -----------------------------------------------------------
 REACHES          22 TO    21    22 TO    23
 -----------------------------------------------------------

 -----------------------------------------------------------
 REACH  =    23
               -----------------CONNECTIONS-----------------
                            1              2
 -----------------------------------------------------------
 REACHES          23 TO    22    23 TO    24
 -----------------------------------------------------------

 -----------------------------------------------------------
 REACH  =    24
               -----------------CONNECTIONS-----------------
                            1              2
 -----------------------------------------------------------
 REACHES          24 TO    23    24 TO    25
 -----------------------------------------------------------

 -----------------------------------------------------------
 REACH  =    25
               -----------------CONNECTIONS-----------------
                            1              2
 -----------------------------------------------------------
 REACHES          25 TO    24    25 TO    26
 -----------------------------------------------------------

 -----------------------------------------------------------
 REACH  =    26
               -----------------CONNECTIONS-----------------
                            1              2
 -----------------------------------------------------------
 REACHES          26 TO    25    26 TO    27
 -----------------------------------------------------------

 -----------------------------------------------------------
 REACH  =    27
               -----------------CONNECTIONS-----------------
                            1              2
 -----------------------------------------------------------
 REACHES          27 TO    26    27 TO    28
 -----------------------------------------------------------

 -----------------------------------------------------------
 REACH  =    28
               -----------------CONNECTIONS-----------------
                            1              2
 -----------------------------------------------------------
 REACHES          28 TO    27    28 TO    29
 -----------------------------------------------------------

 -----------------------------------------------------------
 REACH  =    29
               -----------------CONNECTIONS-----------------
                            1              2
 -----------------------------------------------------------
 REACHES          29 TO    28    29 TO    30
 -----------------------------------------------------------

 -----------------------------------------------------------
 REACH  =    30
               -----------------CONNECTIONS-----------------
                            1              2
 -----------------------------------------------------------
 REACHES          30 TO    29    30 TO    31
 -----------------------------------------------------------

 -----------------------------------------------------------
 REACH  =    31
               -----------------CONNECTIONS-----------------
                            1              2
 -----------------------------------------------------------
 REACHES          31 TO    30    31 TO    32
 -----------------------------------------------------------

 -----------------------------------------------------------
 REACH  =    32
               -----------------CONNECTIONS-----------------
                            1              2
 -----------------------------------------------------------
 REACHES          32 TO    31    32 TO    33
 -----------------------------------------------------------

 -----------------------------------------------------------
 REACH  =    33
               -----------------CONNECTIONS-----------------
                            1              2
 -----------------------------------------------------------
 REACHES          33 TO    32    33 TO    34
 -----------------------------------------------------------

 -----------------------------------------------------------
 REACH  =    34
               -----------------CONNECTIONS-----------------
                            1              2
 -----------------------------------------------------------
 REACHES          34 TO    33    34 TO    35
 -----------------------------------------------------------

 -----------------------------------------------------------
 REACH  =    35
               -----------------CONNECTIONS-----------------
                            1              2
 -----------------------------------------------------------
 REACHES          35 TO    34    35 TO    36
 -----------------------------------------------------------

 -----------------------------------------------------------
 REACH  =    36
               -----------------CONNECTIONS-----------------
                            1              2
 -----------------------------------------------------------
 REACHES          36 TO    35    36 TO    37
 -----------------------------------------------------------

 -----------------------------------------------------------
 REACH  =    37
               -----------------CONNECTIONS-----------------
                            1              2
 -----------------------------------------------------------
 REACHES          37 TO    36    37 TO    38
 -----------------------------------------------------------

 -----------------------------------------------------------
 REACH  =    38
               -----------------CONNECTIONS-----------------
                            1              2
 -----------------------------------------------------------
 REACHES          38 TO    37    38 TO    39
 -----------------------------------------------------------

 -----------------------------------------------------------
 REACH  =    39
               -----------------CONNECTIONS-----------------
                            1              2
 -----------------------------------------------------------
 REACHES          39 TO    38    39 TO    40
 -----------------------------------------------------------

 -----------------------------------------------------------
 REACH  =    40
               -----------------CONNECTIONS-----------------
                            1              2
 -----------------------------------------------------------
 REACHES          40 TO    39    40 TO    41
 -----------------------------------------------------------

 -----------------------------------------------------------
 REACH  =    41
               -----------------CONNECTIONS-----------------
                            1              2
 -----------------------------------------------------------
 REACHES          41 TO    40    41 TO    42
 -----------------------------------------------------------

 -----------------------------------------------------------
 REACH  =    42
               -----------------CONNECTIONS-----------------
                            1              2
 -----------------------------------------------------------
 REACHES          42 TO    41    42 TO    43
 -----------------------------------------------------------

 -----------------------------------------------------------
 REACH  =    43
               -----------------CONNECTIONS-----------------
                            1              2
 -----------------------------------------------------------
 REACHES          43 TO    42    43 TO    44
 -----------------------------------------------------------

 -----------------------------------------------------------
 REACH  =    44
               -----------------CONNECTIONS-----------------
                            1              2
 -----------------------------------------------------------
 REACHES          44 TO    43    44 TO    45
 -----------------------------------------------------------

 -----------------------------------------------------------
 REACH  =    45
               -----------------CONNECTIONS-----------------
                            1              2
 -----------------------------------------------------------
 REACHES          45 TO    44    45 TO    46
 -----------------------------------------------------------

 -----------------------------------------------------------
 REACH  =    46
               -----------------CONNECTIONS-----------------
                            1              2
 -----------------------------------------------------------
 REACHES          46 TO    45    46 TO    47
 -----------------------------------------------------------

 -----------------------------------------------------------
 REACH  =    47
               -----------------CONNECTIONS-----------------
                            1              2
 -----------------------------------------------------------
 REACHES          47 TO    46    47 TO    48
 -----------------------------------------------------------

 -----------------------------------------------------------
 REACH  =    48
               -----------------CONNECTIONS-----------------
                            1              2
 -----------------------------------------------------------
 REACHES          48 TO    47    48 TO    49
 -----------------------------------------------------------

 -----------------------------------------------------------
 REACH  =    49
               -----------------CONNECTIONS-----------------
                            1              2
 -----------------------------------------------------------
 REACHES          49 TO    48    49 TO    50
 -----------------------------------------------------------

 -----------------------------------------------------------
 REACH  =    50
               -----------------CONNECTIONS-----------------
                            1              2
 -----------------------------------------------------------
 REACHES          50 TO    49    50 TO    51
 -----------------------------------------------------------

 -----------------------------------------------------------
 REACH  =    51
               -----------------CONNECTIONS-----------------
                            1              2
 -----------------------------------------------------------
 REACHES          51 TO    50    51 TO    52
 -----------------------------------------------------------

 -----------------------------------------------------------
 REACH  =    52
               -----------------CONNECTIONS-----------------
                            1              2
 -----------------------------------------------------------
 REACHES          52 TO    51    52 TO    53
 -----------------------------------------------------------

 -----------------------------------------------------------
 REACH  =    53
               -----------------CONNECTIONS-----------------
                            1              2
 -----------------------------------------------------------
 REACHES          53 TO    52    53 TO    54
 -----------------------------------------------------------

 -----------------------------------------------------------
 REACH  =    54
               -----------------CONNECTIONS-----------------
                            1              2
 -----------------------------------------------------------
 REACHES          54 TO    53    54 TO    55
 -----------------------------------------------------------

 -----------------------------------------------------------
 REACH  =    55
               -----------------CONNECTIONS-----------------
                            1              2
 -----------------------------------------------------------
 REACHES          55 TO    54    55 TO    56
 -----------------------------------------------------------

 -----------------------------------------------------------
 REACH  =    56
               -----------------CONNECTIONS-----------------
                            1              2
 -----------------------------------------------------------
 REACHES          56 TO    55    56 TO    57
 -----------------------------------------------------------

 -----------------------------------------------------------
 REACH  =    57
               -----------------CONNECTIONS-----------------
                            1              2
 -----------------------------------------------------------
 REACHES          57 TO    56    57 TO    58
 -----------------------------------------------------------

 -----------------------------------------------------------
 REACH  =    58
               -----------------CONNECTIONS-----------------
                            1              2
 -----------------------------------------------------------
 REACHES          58 TO    57    58 TO    59
 -----------------------------------------------------------
