# MODFLOW2000 General Head Boundary Package
PARAMETER  0  0
        22         0
        22         0                      Stress Period 1
         1         1        11     0.100 1.100e+03         1
         1         2        11     0.100 1.100e+03         0
         1         3        11     0.100 1.100e+03         0
         1         4        11     0.100 1.100e+03         0
         1         5        11     0.100 1.100e+03         0
         1         6        11     0.100 1.100e+03         1
         1         7        11     0.100 1.100e+03         1
         1         8        11     0.100 1.100e+03         1
         1         9        11     0.100 1.100e+03         1
         1        10        11     0.100 1.100e+03         1
         1        11        11     0.100 1.100e+03         1
         1         1         1     0.900 6.000e+03         1
         1         2         1     0.900 6.000e+03         0
         1         3         1     0.900 6.000e+03         0
         1         4         1     0.900 6.000e+03         0
         1         5         1     0.900 6.000e+03         0
         1         6         1     0.900 6.000e+05         1
         1         7         1     0.900 6.000e+05         1
         1         8         1     0.900 6.000e+05         1
         1         9         1     0.900 6.000e+05         1
         1        10         1     0.900 6.000e+05         1
         1        11         1     0.900 6.000e+05         1
        -1         0                      Stress Period 2
        -1         0                      Stress Period 3
        -1         0                      Stress Period 4
        -1         0                      Stress Period 5
        -1         0                      Stress Period 6
        -1         0                      Stress Period 7
        -1         0                      Stress Period 8
        -1         0                      Stress Period 9
        -1         0                      Stress Period 10
        -1         0                      Stress Period 11
        -1         0                      Stress Period 12
        -1         0                      Stress Period 13
        -1         0                      Stress Period 14
        -1         0                      Stress Period 15
        -1         0                      Stress Period 16
        -1         0                      Stress Period 17
        -1         0                      Stress Period 18
        -1         0                      Stress Period 19
        -1         0                      Stress Period 20
        -1         0                      Stress Period 21
        -1         0                      Stress Period 22
        -1         0                      Stress Period 23
        -1         0                      Stress Period 24
        -1         0                      Stress Period 25
        -1         0                      Stress Period 26
        -1         0                      Stress Period 27
        -1         0                      Stress Period 28
        -1         0                      Stress Period 29
        -1         0                      Stress Period 30
        -1         0                      Stress Period 31
        -1         0                      Stress Period 32
        -1         0                      Stress Period 33
        -1         0                      Stress Period 34
        -1         0                      Stress Period 35
        -1         0                      Stress Period 36
        -1         0                      Stress Period 37
        -1         0                      Stress Period 38
        -1         0                      Stress Period 39
        -1         0                      Stress Period 40
        -1         0                      Stress Period 41
        -1         0                      Stress Period 42
        -1         0                      Stress Period 43
        -1         0                      Stress Period 44
        -1         0                      Stress Period 45
        -1         0                      Stress Period 46
        -1         0                      Stress Period 47
        -1         0                      Stress Period 48
        -1         0                      Stress Period 49
        -1         0                      Stress Period 50
        -1         0                      Stress Period 51
        -1         0                      Stress Period 52
        -1         0                      Stress Period 53
        -1         0                      Stress Period 54
        -1         0                      Stress Period 55
        -1         0                      Stress Period 56
        -1         0                      Stress Period 57
        -1         0                      Stress Period 58
        -1         0                      Stress Period 59
        -1         0                      Stress Period 60
        -1         0                      Stress Period 61
        -1         0                      Stress Period 62
        -1         0                      Stress Period 63
        -1         0                      Stress Period 64
        -1         0                      Stress Period 65
        -1         0                      Stress Period 66
        -1         0                      Stress Period 67
        -1         0                      Stress Period 68
        -1         0                      Stress Period 69
        -1         0                      Stress Period 70
        -1         0                      Stress Period 71
        -1         0                      Stress Period 72
        -1         0                      Stress Period 73
